MODEL 1
REMARK VINA RESULT:      -5.4      0.000      0.000
REMARK  7 active torsions:
REMARK  status: ('A' for Active; 'I' for Inactive)
REMARK    1  A    between atoms: C_1  and  C_2 
REMARK    2  A    between atoms: C_5  and  C_8 
REMARK    3  A    between atoms: C_8  and  C_9 
REMARK    4  A    between atoms: C_8  and  C_10 
REMARK    5  A    between atoms: C_8  and  C_11 
REMARK    6  A    between atoms: C_11  and  O_13 
REMARK    7  A    between atoms: O_13  and  N_14 
ROOT
ATOM      1  C   LIG d   1       4.581  -0.069  -2.901  0.00  0.00     0.089 C 
ENDROOT
BRANCH   1   2
ATOM      2  C   LIG d   1       4.014  -0.083  -4.298  0.00  0.00    -0.031 A 
ATOM      3  C   LIG d   1       4.693  -0.732  -5.312  0.00  0.00    -0.057 A 
ATOM      4  C   LIG d   1       4.172  -0.746  -6.593  0.00  0.00    -0.059 A 
ATOM      5  H   LIG d   1       5.630  -1.228  -5.105  0.00  0.00     0.062 H 
ATOM      6  C   LIG d   1       2.974  -0.112  -6.858  0.00  0.00    -0.050 A 
ATOM      7  H   LIG d   1       4.703  -1.253  -7.386  0.00  0.00     0.062 H 
ATOM      8  C   LIG d   1       2.295   0.536  -5.844  0.00  0.00    -0.059 A 
ATOM      9  C   LIG d   1       2.812   0.546  -4.562  0.00  0.00    -0.057 A 
ATOM     10  H   LIG d   1       1.358   1.032  -6.051  0.00  0.00     0.062 H 
ATOM     11  H   LIG d   1       2.280   1.049  -3.768  0.00  0.00     0.062 H 
BRANCH   6  12
ATOM     12  C   LIG d   1       2.406  -0.127  -8.255  0.00  0.00    -0.040 C 
ATOM     13  H   LIG d   1       1.489   0.462  -8.281  0.00  0.00     0.028 H 
ATOM     14  H   LIG d   1       3.132   0.300  -8.947  0.00  0.00     0.028 H 
ATOM     15  H   LIG d   1       2.186  -1.153  -8.546  0.00  0.00     0.028 H 
ENDBRANCH   6  12
ENDBRANCH   1   2
BRANCH   1  16
ATOM     16  C   LIG d   1       4.323  -1.419  -2.232  0.00  0.00    -0.045 C 
ATOM     17  H   LIG d   1       5.238  -2.012  -2.244  0.00  0.00     0.024 H 
ATOM     18  H   LIG d   1       4.007  -1.262  -1.201  0.00  0.00     0.024 H 
ATOM     19  H   LIG d   1       3.540  -1.950  -2.775  0.00  0.00     0.024 H 
ENDBRANCH   1  16
BRANCH   1  20
ATOM     20  C   LIG d   1       3.908   1.040  -2.089  0.00  0.00    -0.045 C 
ATOM     21  H   LIG d   1       4.664   1.744  -1.739  0.00  0.00     0.024 H 
ATOM     22  H   LIG d   1       3.187   1.564  -2.717  0.00  0.00     0.024 H 
ATOM     23  H   LIG d   1       3.395   0.603  -1.233  0.00  0.00     0.024 H 
ENDBRANCH   1  20
BRANCH   1  24
ATOM     24  C   LIG d   1       6.066   0.185  -2.964  0.00  0.00     0.335 C 
ATOM     25  O   LIG d   1       6.839  -0.743  -2.938  0.00  0.00    -0.248 OA
BRANCH  24  26
ATOM     26  O   LIG d   1       6.528   1.442  -3.056  0.00  0.00    -0.371 OA
BRANCH  26  27
ATOM     27  N   LIG d   1       7.192   1.751  -4.135  0.00  0.00    -0.165 NA
ATOM     28  H   LIG d   1       8.048   1.220  -4.196  0.00  0.00     0.163 HD
ATOM     29  H   LIG d   1       6.625   1.619  -4.959  0.00  0.00     0.163 HD
ENDBRANCH  26  27
ENDBRANCH  24  26
ENDBRANCH   1  24
TORSDOF 7
ENDMDL
MODEL 2
REMARK VINA RESULT:      -5.3      2.799      4.165
REMARK  7 active torsions:
REMARK  status: ('A' for Active; 'I' for Inactive)
REMARK    1  A    between atoms: C_1  and  C_2 
REMARK    2  A    between atoms: C_5  and  C_8 
REMARK    3  A    between atoms: C_8  and  C_9 
REMARK    4  A    between atoms: C_8  and  C_10 
REMARK    5  A    between atoms: C_8  and  C_11 
REMARK    6  A    between atoms: C_11  and  O_13 
REMARK    7  A    between atoms: O_13  and  N_14 
ROOT
ATOM      1  C   LIG d   1       4.481  -0.139  -2.603  0.00  0.00     0.089 C 
ENDROOT
BRANCH   1   2
ATOM      2  C   LIG d   1       5.774  -0.140  -3.378  0.00  0.00    -0.031 A 
ATOM      3  C   LIG d   1       6.578   0.985  -3.381  0.00  0.00    -0.057 A 
ATOM      4  C   LIG d   1       7.765   0.984  -4.090  0.00  0.00    -0.059 A 
ATOM      5  H   LIG d   1       6.280   1.864  -2.828  0.00  0.00     0.062 H 
ATOM      6  C   LIG d   1       8.147  -0.141  -4.796  0.00  0.00    -0.050 A 
ATOM      7  H   LIG d   1       8.393   1.864  -4.092  0.00  0.00     0.062 H 
ATOM      8  C   LIG d   1       7.344  -1.265  -4.793  0.00  0.00    -0.059 A 
ATOM      9  C   LIG d   1       6.160  -1.267  -4.079  0.00  0.00    -0.057 A 
ATOM     10  H   LIG d   1       7.642  -2.144  -5.344  0.00  0.00     0.062 H 
ATOM     11  H   LIG d   1       5.534  -2.146  -4.073  0.00  0.00     0.062 H 
BRANCH   6  12
ATOM     12  C   LIG d   1       9.441  -0.141  -5.569  0.00  0.00    -0.040 C 
ATOM     13  H   LIG d   1       9.871   0.861  -5.559  0.00  0.00     0.028 H 
ATOM     14  H   LIG d   1      10.139  -0.841  -5.110  0.00  0.00     0.028 H 
ATOM     15  H   LIG d   1       9.249  -0.443  -6.598  0.00  0.00     0.028 H 
ENDBRANCH   6  12
ENDBRANCH   1   2
BRANCH   1  16
ATOM     16  C   LIG d   1       4.484   1.022  -1.608  0.00  0.00    -0.045 C 
ATOM     17  H   LIG d   1       3.473   1.179  -1.230  0.00  0.00     0.024 H 
ATOM     18  H   LIG d   1       5.150   0.787  -0.777  0.00  0.00     0.024 H 
ATOM     19  H   LIG d   1       4.830   1.928  -2.106  0.00  0.00     0.024 H 
ENDBRANCH   1  16
BRANCH   1  20
ATOM     20  C   LIG d   1       4.339  -1.461  -1.846  0.00  0.00    -0.045 C 
ATOM     21  H   LIG d   1       5.329  -1.868  -1.638  0.00  0.00     0.024 H 
ATOM     22  H   LIG d   1       3.814  -1.287  -0.906  0.00  0.00     0.024 H 
ATOM     23  H   LIG d   1       3.774  -2.169  -2.452  0.00  0.00     0.024 H 
ENDBRANCH   1  20
BRANCH   1  24
ATOM     24  C   LIG d   1       3.324   0.020  -3.557  0.00  0.00     0.335 C 
ATOM     25  O   LIG d   1       2.389  -0.743  -3.505  0.00  0.00    -0.248 OA
BRANCH  24  26
ATOM     26  O   LIG d   1       3.331   1.013  -4.460  0.00  0.00    -0.371 OA
BRANCH  26  27
ATOM     27  N   LIG d   1       3.030   0.699  -5.688  0.00  0.00    -0.165 NA
ATOM     28  H   LIG d   1       2.033   0.578  -5.797  0.00  0.00     0.163 HD
ATOM     29  H   LIG d   1       3.383   1.387  -6.335  0.00  0.00     0.163 HD
ENDBRANCH  26  27
ENDBRANCH  24  26
ENDBRANCH   1  24
TORSDOF 7
ENDMDL
MODEL 3
REMARK VINA RESULT:      -5.2      2.774      4.028
REMARK  7 active torsions:
REMARK  status: ('A' for Active; 'I' for Inactive)
REMARK    1  A    between atoms: C_1  and  C_2 
REMARK    2  A    between atoms: C_5  and  C_8 
REMARK    3  A    between atoms: C_8  and  C_9 
REMARK    4  A    between atoms: C_8  and  C_10 
REMARK    5  A    between atoms: C_8  and  C_11 
REMARK    6  A    between atoms: C_11  and  O_13 
REMARK    7  A    between atoms: O_13  and  N_14 
ROOT
ATOM      1  C   LIG d   1       4.013  -0.364  -2.933  0.00  0.00     0.089 C 
ENDROOT
BRANCH   1   2
ATOM      2  C   LIG d   1       5.014  -1.366  -3.449  0.00  0.00    -0.031 A 
ATOM      3  C   LIG d   1       6.367  -1.138  -3.285  0.00  0.00    -0.057 A 
ATOM      4  C   LIG d   1       7.285  -2.058  -3.757  0.00  0.00    -0.059 A 
ATOM      5  H   LIG d   1       6.708  -0.242  -2.787  0.00  0.00     0.062 H 
ATOM      6  C   LIG d   1       6.849  -3.205  -4.393  0.00  0.00    -0.050 A 
ATOM      7  H   LIG d   1       8.343  -1.879  -3.630  0.00  0.00     0.062 H 
ATOM      8  C   LIG d   1       5.497  -3.433  -4.556  0.00  0.00    -0.059 A 
ATOM      9  C   LIG d   1       4.578  -2.517  -4.080  0.00  0.00    -0.057 A 
ATOM     10  H   LIG d   1       5.155  -4.330  -5.053  0.00  0.00     0.062 H 
ATOM     11  H   LIG d   1       3.521  -2.696  -4.203  0.00  0.00     0.062 H 
BRANCH   6  12
ATOM     12  C   LIG d   1       7.850  -4.207  -4.908  0.00  0.00    -0.040 C 
ATOM     13  H   LIG d   1       7.377  -4.842  -5.658  0.00  0.00     0.028 H 
ATOM     14  H   LIG d   1       8.693  -3.682  -5.357  0.00  0.00     0.028 H 
ATOM     15  H   LIG d   1       8.204  -4.824  -4.083  0.00  0.00     0.028 H 
ENDBRANCH   6  12
ENDBRANCH   1   2
BRANCH   1  16
ATOM     16  C   LIG d   1       4.503   0.206  -1.601  0.00  0.00    -0.045 C 
ATOM     17  H   LIG d   1       5.219  -0.484  -1.153  0.00  0.00     0.024 H 
ATOM     18  H   LIG d   1       4.986   1.169  -1.772  0.00  0.00     0.024 H 
ATOM     19  H   LIG d   1       3.657   0.338  -0.927  0.00  0.00     0.024 H 
ENDBRANCH   1  16
BRANCH   1  20
ATOM     20  C   LIG d   1       2.662  -1.052  -2.727  0.00  0.00    -0.045 C 
ATOM     21  H   LIG d   1       1.874  -0.451  -3.181  0.00  0.00     0.024 H 
ATOM     22  H   LIG d   1       2.681  -2.038  -3.193  0.00  0.00     0.024 H 
ATOM     23  H   LIG d   1       2.468  -1.159  -1.660  0.00  0.00     0.024 H 
ENDBRANCH   1  20
BRANCH   1  24
ATOM     24  C   LIG d   1       3.860   0.754  -3.932  0.00  0.00     0.335 C 
ATOM     25  O   LIG d   1       3.646   1.880  -3.551  0.00  0.00    -0.248 OA
BRANCH  24  26
ATOM     26  O   LIG d   1       3.969   0.498  -5.246  0.00  0.00    -0.371 OA
BRANCH  26  27
ATOM     27  N   LIG d   1       2.896   0.656  -5.970  0.00  0.00    -0.165 NA
ATOM     28  H   LIG d   1       2.601   1.621  -5.974  0.00  0.00     0.163 HD
ATOM     29  H   LIG d   1       3.041   0.318  -6.909  0.00  0.00     0.163 HD
ENDBRANCH  26  27
ENDBRANCH  24  26
ENDBRANCH   1  24
TORSDOF 7
ENDMDL
MODEL 4
REMARK VINA RESULT:      -4.8      2.621      4.079
REMARK  7 active torsions:
REMARK  status: ('A' for Active; 'I' for Inactive)
REMARK    1  A    between atoms: C_1  and  C_2 
REMARK    2  A    between atoms: C_5  and  C_8 
REMARK    3  A    between atoms: C_8  and  C_9 
REMARK    4  A    between atoms: C_8  and  C_10 
REMARK    5  A    between atoms: C_8  and  C_11 
REMARK    6  A    between atoms: C_11  and  O_13 
REMARK    7  A    between atoms: O_13  and  N_14 
ROOT
ATOM      1  C   LIG d   1       4.030   0.097  -3.264  0.00  0.00     0.089 C 
ENDROOT
BRANCH   1   2
ATOM      2  C   LIG d   1       5.387   0.345  -3.872  0.00  0.00    -0.031 A 
ATOM      3  C   LIG d   1       6.286   1.182  -3.239  0.00  0.00    -0.057 A 
ATOM      4  C   LIG d   1       7.530   1.409  -3.796  0.00  0.00    -0.059 A 
ATOM      5  H   LIG d   1       6.016   1.659  -2.307  0.00  0.00     0.062 H 
ATOM      6  C   LIG d   1       7.875   0.800  -4.987  0.00  0.00    -0.050 A 
ATOM      7  H   LIG d   1       8.232   2.064  -3.301  0.00  0.00     0.062 H 
ATOM      8  C   LIG d   1       6.977  -0.038  -5.621  0.00  0.00    -0.059 A 
ATOM      9  C   LIG d   1       5.734  -0.269  -5.061  0.00  0.00    -0.057 A 
ATOM     10  H   LIG d   1       7.246  -0.515  -6.552  0.00  0.00     0.062 H 
ATOM     11  H   LIG d   1       5.034  -0.926  -5.553  0.00  0.00     0.062 H 
BRANCH   6  12
ATOM     12  C   LIG d   1       9.232   1.047  -5.595  0.00  0.00    -0.040 C 
ATOM     13  H   LIG d   1      10.006   0.809  -4.866  0.00  0.00     0.028 H 
ATOM     14  H   LIG d   1       9.356   0.417  -6.476  0.00  0.00     0.028 H 
ATOM     15  H   LIG d   1       9.315   2.095  -5.883  0.00  0.00     0.028 H 
ENDBRANCH   6  12
ENDBRANCH   1   2
BRANCH   1  16
ATOM     16  C   LIG d   1       2.957   0.210  -4.348  0.00  0.00    -0.045 C 
ATOM     17  H   LIG d   1       2.009   0.497  -3.893  0.00  0.00     0.024 H 
ATOM     18  H   LIG d   1       3.253   0.966  -5.076  0.00  0.00     0.024 H 
ATOM     19  H   LIG d   1       2.843  -0.752  -4.849  0.00  0.00     0.024 H 
ENDBRANCH   1  16
BRANCH   1  20
ATOM     20  C   LIG d   1       3.763   1.136  -2.172  0.00  0.00    -0.045 C 
ATOM     21  H   LIG d   1       2.690   1.206  -1.992  0.00  0.00     0.024 H 
ATOM     22  H   LIG d   1       4.267   0.835  -1.253  0.00  0.00     0.024 H 
ATOM     23  H   LIG d   1       4.142   2.106  -2.493  0.00  0.00     0.024 H 
ENDBRANCH   1  20
BRANCH   1  24
ATOM     24  C   LIG d   1       3.994  -1.284  -2.663  0.00  0.00     0.335 C 
ATOM     25  O   LIG d   1       4.449  -1.475  -1.560  0.00  0.00    -0.248 OA
BRANCH  24  26
ATOM     26  O   LIG d   1       3.450  -2.301  -3.350  0.00  0.00    -0.371 OA
BRANCH  26  27
ATOM     27  N   LIG d   1       4.260  -3.234  -3.767  0.00  0.00    -0.165 NA
ATOM     28  H   LIG d   1       4.830  -3.582  -3.010  0.00  0.00     0.163 HD
ATOM     29  H   LIG d   1       3.751  -3.983  -4.211  0.00  0.00     0.163 HD
ENDBRANCH  26  27
ENDBRANCH  24  26
ENDBRANCH   1  24
TORSDOF 7
ENDMDL
MODEL 5
REMARK VINA RESULT:      -4.8      2.867      4.750
REMARK  7 active torsions:
REMARK  status: ('A' for Active; 'I' for Inactive)
REMARK    1  A    between atoms: C_1  and  C_2 
REMARK    2  A    between atoms: C_5  and  C_8 
REMARK    3  A    between atoms: C_8  and  C_9 
REMARK    4  A    between atoms: C_8  and  C_10 
REMARK    5  A    between atoms: C_8  and  C_11 
REMARK    6  A    between atoms: C_11  and  O_13 
REMARK    7  A    between atoms: O_13  and  N_14 
ROOT
ATOM      1  C   LIG d   1       3.286   0.531  -7.961  0.00  0.00     0.089 C 
ENDROOT
BRANCH   1   2
ATOM      2  C   LIG d   1       3.372   0.013  -6.548  0.00  0.00    -0.031 A 
ATOM      3  C   LIG d   1       4.282  -0.977  -6.228  0.00  0.00    -0.057 A 
ATOM      4  C   LIG d   1       4.362  -1.450  -4.932  0.00  0.00    -0.059 A 
ATOM      5  H   LIG d   1       4.932  -1.380  -6.991  0.00  0.00     0.062 H 
ATOM      6  C   LIG d   1       3.531  -0.934  -3.956  0.00  0.00    -0.050 A 
ATOM      7  H   LIG d   1       5.073  -2.225  -4.683  0.00  0.00     0.062 H 
ATOM      8  C   LIG d   1       2.622   0.056  -4.275  0.00  0.00    -0.059 A 
ATOM      9  C   LIG d   1       2.545   0.534  -5.570  0.00  0.00    -0.057 A 
ATOM     10  H   LIG d   1       1.972   0.460  -3.512  0.00  0.00     0.062 H 
ATOM     11  H   LIG d   1       1.838   1.310  -5.819  0.00  0.00     0.062 H 
BRANCH   6  12
ATOM     12  C   LIG d   1       3.617  -1.451  -2.543  0.00  0.00    -0.040 C 
ATOM     13  H   LIG d   1       3.253  -0.688  -1.853  0.00  0.00     0.028 H 
ATOM     14  H   LIG d   1       3.007  -2.349  -2.446  0.00  0.00     0.028 H 
ATOM     15  H   LIG d   1       4.653  -1.689  -2.305  0.00  0.00     0.028 H 
ENDBRANCH   6  12
ENDBRANCH   1   2
BRANCH   1  16
ATOM     16  C   LIG d   1       2.698   1.942  -7.952  0.00  0.00    -0.045 C 
ATOM     17  H   LIG d   1       1.645   1.898  -8.231  0.00  0.00     0.024 H 
ATOM     18  H   LIG d   1       2.791   2.369  -6.953  0.00  0.00     0.024 H 
ATOM     19  H   LIG d   1       3.236   2.566  -8.666  0.00  0.00     0.024 H 
ENDBRANCH   1  16
BRANCH   1  20
ATOM     20  C   LIG d   1       2.388  -0.391  -8.788  0.00  0.00    -0.045 C 
ATOM     21  H   LIG d   1       2.247  -1.333  -8.257  0.00  0.00     0.024 H 
ATOM     22  H   LIG d   1       1.420   0.087  -8.941  0.00  0.00     0.024 H 
ATOM     23  H   LIG d   1       2.854  -0.585  -9.753  0.00  0.00     0.024 H 
ENDBRANCH   1  20
BRANCH   1  24
ATOM     24  C   LIG d   1       4.665   0.565  -8.569  0.00  0.00     0.335 C 
ATOM     25  O   LIG d   1       4.996  -0.282  -9.365  0.00  0.00    -0.248 OA
BRANCH  24  26
ATOM     26  O   LIG d   1       5.524   1.539  -8.229  0.00  0.00    -0.371 OA
BRANCH  26  27
ATOM     27  N   LIG d   1       6.061   2.220  -9.203  0.00  0.00    -0.165 NA
ATOM     28  H   LIG d   1       5.962   3.212  -9.048  0.00  0.00     0.163 HD
ATOM     29  H   LIG d   1       7.030   1.968  -9.328  0.00  0.00     0.163 HD
ENDBRANCH  26  27
ENDBRANCH  24  26
ENDBRANCH   1  24
TORSDOF 7
ENDMDL
MODEL 6
REMARK VINA RESULT:      -4.6      3.962      5.618
REMARK  7 active torsions:
REMARK  status: ('A' for Active; 'I' for Inactive)
REMARK    1  A    between atoms: C_1  and  C_2 
REMARK    2  A    between atoms: C_5  and  C_8 
REMARK    3  A    between atoms: C_8  and  C_9 
REMARK    4  A    between atoms: C_8  and  C_10 
REMARK    5  A    between atoms: C_8  and  C_11 
REMARK    6  A    between atoms: C_11  and  O_13 
REMARK    7  A    between atoms: O_13  and  N_14 
ROOT
ATOM      1  C   LIG d   1       3.579   0.410  -8.112  0.00  0.00     0.089 C 
ENDROOT
BRANCH   1   2
ATOM      2  C   LIG d   1       3.513  -0.027  -6.670  0.00  0.00    -0.031 A 
ATOM      3  C   LIG d   1       2.554   0.506  -5.830  0.00  0.00    -0.057 A 
ATOM      4  C   LIG d   1       2.493   0.106  -4.508  0.00  0.00    -0.059 A 
ATOM      5  H   LIG d   1       1.850   1.235  -6.206  0.00  0.00     0.062 H 
ATOM      6  C   LIG d   1       3.392  -0.827  -4.028  0.00  0.00    -0.050 A 
ATOM      7  H   LIG d   1       1.743   0.522  -3.852  0.00  0.00     0.062 H 
ATOM      8  C   LIG d   1       4.351  -1.361  -4.867  0.00  0.00    -0.059 A 
ATOM      9  C   LIG d   1       4.409  -0.964  -6.191  0.00  0.00    -0.057 A 
ATOM     10  H   LIG d   1       5.054  -2.090  -4.492  0.00  0.00     0.062 H 
ATOM     11  H   LIG d   1       5.155  -1.383  -6.849  0.00  0.00     0.062 H 
BRANCH   6  12
ATOM     12  C   LIG d   1       3.326  -1.264  -2.587  0.00  0.00    -0.040 C 
ATOM     13  H   LIG d   1       4.140  -1.960  -2.379  0.00  0.00     0.028 H 
ATOM     14  H   LIG d   1       3.420  -0.393  -1.938  0.00  0.00     0.028 H 
ATOM     15  H   LIG d   1       2.372  -1.755  -2.399  0.00  0.00     0.028 H 
ENDBRANCH   6  12
ENDBRANCH   1   2
BRANCH   1  16
ATOM     16  C   LIG d   1       5.041   0.532  -8.541  0.00  0.00    -0.045 C 
ATOM     17  H   LIG d   1       5.489   1.402  -8.059  0.00  0.00     0.024 H 
ATOM     18  H   LIG d   1       5.585  -0.365  -8.245  0.00  0.00     0.024 H 
ATOM     19  H   LIG d   1       5.095   0.649  -9.623  0.00  0.00     0.024 H 
ENDBRANCH   1  16
BRANCH   1  20
ATOM     20  C   LIG d   1       2.886   1.765  -8.266  0.00  0.00    -0.045 C 
ATOM     21  H   LIG d   1       3.229   2.247  -9.182  0.00  0.00     0.024 H 
ATOM     22  H   LIG d   1       1.807   1.619  -8.315  0.00  0.00     0.024 H 
ATOM     23  H   LIG d   1       3.129   2.396  -7.411  0.00  0.00     0.024 H 
ENDBRANCH   1  20
BRANCH   1  24
ATOM     24  C   LIG d   1       2.885  -0.610  -8.978  0.00  0.00     0.335 C 
ATOM     25  O   LIG d   1       3.523  -1.489  -9.506  0.00  0.00    -0.248 OA
BRANCH  24  26
ATOM     26  O   LIG d   1       1.556  -0.545  -9.157  0.00  0.00    -0.371 OA
BRANCH  26  27
ATOM     27  N   LIG d   1       1.060  -1.219 -10.156  0.00  0.00    -0.165 NA
ATOM     28  H   LIG d   1       1.087  -0.677 -11.007  0.00  0.00     0.163 HD
ATOM     29  H   LIG d   1       1.538  -2.100 -10.272  0.00  0.00     0.163 HD
ENDBRANCH  26  27
ENDBRANCH  24  26
ENDBRANCH   1  24
TORSDOF 7
ENDMDL
MODEL 7
REMARK VINA RESULT:      -4.5      3.504      4.945
REMARK  7 active torsions:
REMARK  status: ('A' for Active; 'I' for Inactive)
REMARK    1  A    between atoms: C_1  and  C_2 
REMARK    2  A    between atoms: C_5  and  C_8 
REMARK    3  A    between atoms: C_8  and  C_9 
REMARK    4  A    between atoms: C_8  and  C_10 
REMARK    5  A    between atoms: C_8  and  C_11 
REMARK    6  A    between atoms: C_11  and  O_13 
REMARK    7  A    between atoms: O_13  and  N_14 
ROOT
ATOM      1  C   LIG d   1       5.755  -3.521  -5.160  0.00  0.00     0.089 C 
ENDROOT
BRANCH   1   2
ATOM      2  C   LIG d   1       5.441  -2.396  -4.206  0.00  0.00    -0.031 A 
ATOM      3  C   LIG d   1       4.327  -2.471  -3.392  0.00  0.00    -0.057 A 
ATOM      4  C   LIG d   1       4.039  -1.440  -2.517  0.00  0.00    -0.059 A 
ATOM      5  H   LIG d   1       3.680  -3.336  -3.438  0.00  0.00     0.062 H 
ATOM      6  C   LIG d   1       4.866  -0.334  -2.457  0.00  0.00    -0.050 A 
ATOM      7  H   LIG d   1       3.168  -1.499  -1.881  0.00  0.00     0.062 H 
ATOM      8  C   LIG d   1       5.980  -0.259  -3.270  0.00  0.00    -0.059 A 
ATOM      9  C   LIG d   1       6.271  -1.292  -4.142  0.00  0.00    -0.057 A 
ATOM     10  H   LIG d   1       6.627   0.605  -3.224  0.00  0.00     0.062 H 
ATOM     11  H   LIG d   1       7.144  -1.236  -4.775  0.00  0.00     0.062 H 
BRANCH   6  12
ATOM     12  C   LIG d   1       4.553   0.790  -1.503  0.00  0.00    -0.040 C 
ATOM     13  H   LIG d   1       5.416   0.976  -0.864  0.00  0.00     0.028 H 
ATOM     14  H   LIG d   1       4.319   1.692  -2.069  0.00  0.00     0.028 H 
ATOM     15  H   LIG d   1       3.697   0.515  -0.887  0.00  0.00     0.028 H 
ENDBRANCH   6  12
ENDBRANCH   1   2
BRANCH   1  16
ATOM     16  C   LIG d   1       4.799  -4.687  -4.903  0.00  0.00    -0.045 C 
ATOM     17  H   LIG d   1       5.297  -5.625  -5.148  0.00  0.00     0.024 H 
ATOM     18  H   LIG d   1       4.507  -4.694  -3.853  0.00  0.00     0.024 H 
ATOM     19  H   LIG d   1       3.911  -4.574  -5.527  0.00  0.00     0.024 H 
ENDBRANCH   1  16
BRANCH   1  20
ATOM     20  C   LIG d   1       7.196  -3.986  -4.944  0.00  0.00    -0.045 C 
ATOM     21  H   LIG d   1       7.686  -3.329  -4.223  0.00  0.00     0.024 H 
ATOM     22  H   LIG d   1       7.195  -5.007  -4.562  0.00  0.00     0.024 H 
ATOM     23  H   LIG d   1       7.735  -3.952  -5.890  0.00  0.00     0.024 H 
ENDBRANCH   1  20
BRANCH   1  24
ATOM     24  C   LIG d   1       5.590  -3.038  -6.578  0.00  0.00     0.335 C 
ATOM     25  O   LIG d   1       6.560  -2.720  -7.224  0.00  0.00    -0.248 OA
BRANCH  24  26
ATOM     26  O   LIG d   1       4.366  -2.969  -7.125  0.00  0.00    -0.371 OA
BRANCH  26  27
ATOM     27  N   LIG d   1       3.812  -1.790  -7.188  0.00  0.00    -0.165 NA
ATOM     28  H   LIG d   1       3.992  -1.354  -8.080  0.00  0.00     0.163 HD
ATOM     29  H   LIG d   1       2.822  -1.846  -7.005  0.00  0.00     0.163 HD
ENDBRANCH  26  27
ENDBRANCH  24  26
ENDBRANCH   1  24
TORSDOF 7
ENDMDL
MODEL 8
REMARK VINA RESULT:      -4.5      7.674      9.180
REMARK  7 active torsions:
REMARK  status: ('A' for Active; 'I' for Inactive)
REMARK    1  A    between atoms: C_1  and  C_2 
REMARK    2  A    between atoms: C_5  and  C_8 
REMARK    3  A    between atoms: C_8  and  C_9 
REMARK    4  A    between atoms: C_8  and  C_10 
REMARK    5  A    between atoms: C_8  and  C_11 
REMARK    6  A    between atoms: C_11  and  O_13 
REMARK    7  A    between atoms: O_13  and  N_14 
ROOT
ATOM      1  C   LIG d   1      10.405   7.493  -1.365  0.00  0.00     0.089 C 
ENDROOT
BRANCH   1   2
ATOM      2  C   LIG d   1      10.093   6.422  -2.379  0.00  0.00    -0.031 A 
ATOM      3  C   LIG d   1      10.241   5.089  -2.044  0.00  0.00    -0.057 A 
ATOM      4  C   LIG d   1       9.954   4.107  -2.973  0.00  0.00    -0.059 A 
ATOM      5  H   LIG d   1      10.579   4.814  -1.055  0.00  0.00     0.062 H 
ATOM      6  C   LIG d   1       9.521   4.458  -4.238  0.00  0.00    -0.050 A 
ATOM      7  H   LIG d   1      10.070   3.065  -2.711  0.00  0.00     0.062 H 
ATOM      8  C   LIG d   1       9.373   5.790  -4.573  0.00  0.00    -0.059 A 
ATOM      9  C   LIG d   1       9.655   6.773  -3.642  0.00  0.00    -0.057 A 
ATOM     10  H   LIG d   1       9.034   6.065  -5.561  0.00  0.00     0.062 H 
ATOM     11  H   LIG d   1       9.535   7.814  -3.902  0.00  0.00     0.062 H 
BRANCH   6  12
ATOM     12  C   LIG d   1       9.209   3.387  -5.252  0.00  0.00    -0.040 C 
ATOM     13  H   LIG d   1       9.327   2.405  -4.792  0.00  0.00     0.028 H 
ATOM     14  H   LIG d   1       8.183   3.503  -5.600  0.00  0.00     0.028 H 
ATOM     15  H   LIG d   1       9.892   3.476  -6.096  0.00  0.00     0.028 H 
ENDBRANCH   6  12
ENDBRANCH   1   2
BRANCH   1  16
ATOM     16  C   LIG d   1      11.585   8.332  -1.857  0.00  0.00    -0.045 C 
ATOM     17  H   LIG d   1      11.613   8.315  -2.947  0.00  0.00     0.024 H 
ATOM     18  H   LIG d   1      11.470   9.361  -1.514  0.00  0.00     0.024 H 
ATOM     19  H   LIG d   1      12.515   7.920  -1.464  0.00  0.00     0.024 H 
ENDBRANCH   1  16
BRANCH   1  20
ATOM     20  C   LIG d   1      10.765   6.840  -0.029  0.00  0.00    -0.045 C 
ATOM     21  H   LIG d   1      10.474   7.501   0.789  0.00  0.00     0.024 H 
ATOM     22  H   LIG d   1      10.237   5.891   0.066  0.00  0.00     0.024 H 
ATOM     23  H   LIG d   1      11.840   6.664   0.011  0.00  0.00     0.024 H 
ENDBRANCH   1  20
BRANCH   1  24
ATOM     24  C   LIG d   1       9.199   8.379  -1.183  0.00  0.00     0.335 C 
ATOM     25  O   LIG d   1       8.156   7.907  -0.798  0.00  0.00    -0.248 OA
BRANCH  24  26
ATOM     26  O   LIG d   1       9.287   9.693  -1.442  0.00  0.00    -0.371 OA
BRANCH  26  27
ATOM     27  N   LIG d   1       8.166  10.348  -1.566  0.00  0.00    -0.165 NA
ATOM     28  H   LIG d   1       7.638  10.013  -2.358  0.00  0.00     0.163 HD
ATOM     29  H   LIG d   1       7.621  10.295  -0.719  0.00  0.00     0.163 HD
ENDBRANCH  26  27
ENDBRANCH  24  26
ENDBRANCH   1  24
TORSDOF 7
ENDMDL
MODEL 9
REMARK VINA RESULT:      -4.5      2.105      2.415
REMARK  7 active torsions:
REMARK  status: ('A' for Active; 'I' for Inactive)
REMARK    1  A    between atoms: C_1  and  C_2 
REMARK    2  A    between atoms: C_5  and  C_8 
REMARK    3  A    between atoms: C_8  and  C_9 
REMARK    4  A    between atoms: C_8  and  C_10 
REMARK    5  A    between atoms: C_8  and  C_11 
REMARK    6  A    between atoms: C_11  and  O_13 
REMARK    7  A    between atoms: O_13  and  N_14 
ROOT
ATOM      1  C   LIG d   1       4.451  -1.191  -3.559  0.00  0.00     0.089 C 
ENDROOT
BRANCH   1   2
ATOM      2  C   LIG d   1       4.007  -0.596  -4.871  0.00  0.00    -0.031 A 
ATOM      3  C   LIG d   1       4.774  -0.778  -6.007  0.00  0.00    -0.057 A 
ATOM      4  C   LIG d   1       4.366  -0.234  -7.210  0.00  0.00    -0.059 A 
ATOM      5  H   LIG d   1       5.692  -1.346  -5.954  0.00  0.00     0.062 H 
ATOM      6  C   LIG d   1       3.192   0.492  -7.278  0.00  0.00    -0.050 A 
ATOM      7  H   LIG d   1       4.966  -0.375  -8.098  0.00  0.00     0.062 H 
ATOM      8  C   LIG d   1       2.425   0.673  -6.143  0.00  0.00    -0.059 A 
ATOM      9  C   LIG d   1       2.830   0.125  -4.940  0.00  0.00    -0.057 A 
ATOM     10  H   LIG d   1       1.507   1.240  -6.195  0.00  0.00     0.062 H 
ATOM     11  H   LIG d   1       2.229   0.262  -4.054  0.00  0.00     0.062 H 
BRANCH   6  12
ATOM     12  C   LIG d   1       2.748   1.086  -8.590  0.00  0.00    -0.040 C 
ATOM     13  H   LIG d   1       1.995   0.442  -9.045  0.00  0.00     0.028 H 
ATOM     14  H   LIG d   1       2.323   2.074  -8.417  0.00  0.00     0.028 H 
ATOM     15  H   LIG d   1       3.604   1.170  -9.259  0.00  0.00     0.028 H 
ENDBRANCH   6  12
ENDBRANCH   1   2
BRANCH   1  16
ATOM     16  C   LIG d   1       3.242  -1.348  -2.636  0.00  0.00    -0.045 C 
ATOM     17  H   LIG d   1       3.506  -1.994  -1.798  0.00  0.00     0.024 H 
ATOM     18  H   LIG d   1       2.941  -0.370  -2.259  0.00  0.00     0.024 H 
ATOM     19  H   LIG d   1       2.416  -1.794  -3.191  0.00  0.00     0.024 H 
ENDBRANCH   1  16
BRANCH   1  20
ATOM     20  C   LIG d   1       5.477  -0.266  -2.902  0.00  0.00    -0.045 C 
ATOM     21  H   LIG d   1       5.102   0.064  -1.932  0.00  0.00     0.024 H 
ATOM     22  H   LIG d   1       6.416  -0.803  -2.764  0.00  0.00     0.024 H 
ATOM     23  H   LIG d   1       5.646   0.601  -3.540  0.00  0.00     0.024 H 
ENDBRANCH   1  20
BRANCH   1  24
ATOM     24  C   LIG d   1       5.075  -2.540  -3.804  0.00  0.00     0.335 C 
ATOM     25  O   LIG d   1       4.374  -3.504  -3.999  0.00  0.00    -0.248 OA
BRANCH  24  26
ATOM     26  O   LIG d   1       6.411  -2.669  -3.813  0.00  0.00    -0.371 OA
BRANCH  26  27
ATOM     27  N   LIG d   1       6.921  -3.490  -4.689  0.00  0.00    -0.165 NA
ATOM     28  H   LIG d   1       6.813  -3.132  -5.626  0.00  0.00     0.163 HD
ATOM     29  H   LIG d   1       7.890  -3.682  -4.484  0.00  0.00     0.163 HD
ENDBRANCH  26  27
ENDBRANCH  24  26
ENDBRANCH   1  24
TORSDOF 7
ENDMDL
