MODEL 1
REMARK VINA RESULT:      -3.7      0.000      0.000
REMARK  4 active torsions:
REMARK  status: ('A' for Active; 'I' for Inactive)
REMARK    1  A    between atoms: C_1  and  C_2 
REMARK    2  A    between atoms: C_2  and  C_7 
REMARK    3  A    between atoms: C_3  and  C_4 
REMARK    4  A    between atoms: C_4  and  C_6 
ROOT
ATOM      1  C   LIG d   1       5.250   0.628  -2.942  0.00  0.00    -0.072 C 
ATOM      2  C   LIG d   1       4.663  -0.285  -3.719  0.00  0.00    -0.021 C 
ATOM      3  H   LIG d   1       5.035  -0.462  -4.718  0.00  0.00     0.065 H 
ENDROOT
BRANCH   1   4
ATOM      4  C   LIG d   1       4.634   0.998  -1.618  0.00  0.00    -0.044 C 
ATOM      5  H   LIG d   1       5.229   0.574  -0.808  0.00  0.00     0.027 H 
ATOM      6  H   LIG d   1       4.608   2.083  -1.519  0.00  0.00     0.027 H 
ATOM      7  H   LIG d   1       3.618   0.604  -1.567  0.00  0.00     0.027 H 
ENDBRANCH   1   4
BRANCH   1   8
ATOM      8  C   LIG d   1       6.529   1.288  -3.389  0.00  0.00    -0.044 C 
ATOM      9  H   LIG d   1       6.293   2.175  -3.976  0.00  0.00     0.027 H 
ATOM     10  H   LIG d   1       7.115   1.575  -2.516  0.00  0.00     0.027 H 
ATOM     11  H   LIG d   1       7.104   0.591  -3.998  0.00  0.00     0.027 H 
ENDBRANCH   1   8
BRANCH   2  12
ATOM     12  C   LIG d   1       3.518  -1.044  -3.219  0.00  0.00     0.153 C 
ATOM     13  O   LIG d   1       2.390  -0.680  -3.477  0.00  0.00    -0.293 OA
BRANCH  12  14
ATOM     14  C   LIG d   1       3.739  -2.278  -2.383  0.00  0.00    -0.002 C 
ATOM     15  H   LIG d   1       4.767  -2.619  -2.504  0.00  0.00     0.031 H 
ATOM     16  H   LIG d   1       3.555  -2.044  -1.334  0.00  0.00     0.031 H 
ATOM     17  H   LIG d   1       3.055  -3.062  -2.705  0.00  0.00     0.031 H 
ENDBRANCH  12  14
ENDBRANCH   2  12
TORSDOF 4
ENDMDL
MODEL 2
REMARK VINA RESULT:      -3.7      1.999      3.026
REMARK  4 active torsions:
REMARK  status: ('A' for Active; 'I' for Inactive)
REMARK    1  A    between atoms: C_1  and  C_2 
REMARK    2  A    between atoms: C_2  and  C_7 
REMARK    3  A    between atoms: C_3  and  C_4 
REMARK    4  A    between atoms: C_4  and  C_6 
ROOT
ATOM      1  C   LIG d   1       5.183  -1.409  -2.992  0.00  0.00    -0.072 C 
ATOM      2  C   LIG d   1       5.543  -0.126  -2.920  0.00  0.00    -0.021 C 
ATOM      3  H   LIG d   1       6.479   0.197  -3.352  0.00  0.00     0.065 H 
ENDROOT
BRANCH   1   4
ATOM      4  C   LIG d   1       3.967  -1.894  -2.247  0.00  0.00    -0.044 C 
ATOM      5  H   LIG d   1       3.088  -1.800  -2.885  0.00  0.00     0.027 H 
ATOM      6  H   LIG d   1       4.103  -2.939  -1.968  0.00  0.00     0.027 H 
ATOM      7  H   LIG d   1       3.829  -1.293  -1.348  0.00  0.00     0.027 H 
ENDBRANCH   1   4
BRANCH   1   8
ATOM      8  C   LIG d   1       5.994  -2.374  -3.820  0.00  0.00    -0.044 C 
ATOM      9  H   LIG d   1       6.935  -2.585  -3.313  0.00  0.00     0.027 H 
ATOM     10  H   LIG d   1       5.435  -3.300  -3.950  0.00  0.00     0.027 H 
ATOM     11  H   LIG d   1       6.198  -1.933  -4.795  0.00  0.00     0.027 H 
ENDBRANCH   1   8
BRANCH   2  12
ATOM     12  C   LIG d   1       4.671   0.842  -2.256  0.00  0.00     0.153 C 
ATOM     13  O   LIG d   1       4.860   1.131  -1.093  0.00  0.00    -0.293 OA
BRANCH  12  14
ATOM     14  C   LIG d   1       3.537   1.479  -3.016  0.00  0.00    -0.002 C 
ATOM     15  H   LIG d   1       3.028   0.722  -3.613  0.00  0.00     0.031 H 
ATOM     16  H   LIG d   1       2.830   1.920  -2.312  0.00  0.00     0.031 H 
ATOM     17  H   LIG d   1       3.929   2.255  -3.671  0.00  0.00     0.031 H 
ENDBRANCH  12  14
ENDBRANCH   2  12
TORSDOF 4
ENDMDL
MODEL 3
REMARK VINA RESULT:      -3.7      1.664      2.544
REMARK  4 active torsions:
REMARK  status: ('A' for Active; 'I' for Inactive)
REMARK    1  A    between atoms: C_1  and  C_2 
REMARK    2  A    between atoms: C_2  and  C_7 
REMARK    3  A    between atoms: C_3  and  C_4 
REMARK    4  A    between atoms: C_4  and  C_6 
ROOT
ATOM      1  C   LIG d   1       3.811   0.147  -2.606  0.00  0.00    -0.072 C 
ATOM      2  C   LIG d   1       3.352   0.884  -3.620  0.00  0.00    -0.021 C 
ATOM      3  H   LIG d   1       3.447   1.960  -3.592  0.00  0.00     0.065 H 
ENDROOT
BRANCH   1   4
ATOM      4  C   LIG d   1       3.529  -1.332  -2.562  0.00  0.00    -0.044 C 
ATOM      5  H   LIG d   1       3.699  -1.704  -1.551  0.00  0.00     0.027 H 
ATOM      6  H   LIG d   1       2.493  -1.514  -2.846  0.00  0.00     0.027 H 
ATOM      7  H   LIG d   1       4.193  -1.849  -3.255  0.00  0.00     0.027 H 
ENDBRANCH   1   4
BRANCH   1   8
ATOM      8  C   LIG d   1       4.612   0.795  -1.506  0.00  0.00    -0.044 C 
ATOM      9  H   LIG d   1       4.702   1.864  -1.704  0.00  0.00     0.027 H 
ATOM     10  H   LIG d   1       4.109   0.643  -0.552  0.00  0.00     0.027 H 
ATOM     11  H   LIG d   1       5.605   0.349  -1.469  0.00  0.00     0.027 H 
ENDBRANCH   1   8
BRANCH   2  12
ATOM     12  C   LIG d   1       2.719   0.235  -4.768  0.00  0.00     0.153 C 
ATOM     13  O   LIG d   1       1.524   0.025  -4.763  0.00  0.00    -0.293 OA
BRANCH  12  14
ATOM     14  C   LIG d   1       3.551  -0.173  -5.955  0.00  0.00    -0.002 C 
ATOM     15  H   LIG d   1       4.445   0.449  -6.004  0.00  0.00     0.031 H 
ATOM     16  H   LIG d   1       3.842  -1.219  -5.854  0.00  0.00     0.031 H 
ATOM     17  H   LIG d   1       2.969  -0.046  -6.868  0.00  0.00     0.031 H 
ENDBRANCH  12  14
ENDBRANCH   2  12
TORSDOF 4
ENDMDL
MODEL 4
REMARK VINA RESULT:      -3.7      1.838      2.359
REMARK  4 active torsions:
REMARK  status: ('A' for Active; 'I' for Inactive)
REMARK    1  A    between atoms: C_1  and  C_2 
REMARK    2  A    between atoms: C_2  and  C_7 
REMARK    3  A    between atoms: C_3  and  C_4 
REMARK    4  A    between atoms: C_4  and  C_6 
ROOT
ATOM      1  C   LIG d   1       4.138  -0.241  -2.492  0.00  0.00    -0.072 C 
ATOM      2  C   LIG d   1       5.004  -1.214  -2.781  0.00  0.00    -0.021 C 
ATOM      3  H   LIG d   1       6.034  -1.129  -2.469  0.00  0.00     0.065 H 
ENDROOT
BRANCH   1   4
ATOM      4  C   LIG d   1       2.746  -0.274  -3.069  0.00  0.00    -0.044 C 
ATOM      5  H   LIG d   1       2.510  -1.289  -3.390  0.00  0.00     0.027 H 
ATOM      6  H   LIG d   1       2.030   0.042  -2.311  0.00  0.00     0.027 H 
ATOM      7  H   LIG d   1       2.692   0.399  -3.925  0.00  0.00     0.027 H 
ENDBRANCH   1   4
BRANCH   1   8
ATOM      8  C   LIG d   1       4.552   0.892  -1.588  0.00  0.00    -0.044 C 
ATOM      9  H   LIG d   1       5.554   0.704  -1.206  0.00  0.00     0.027 H 
ATOM     10  H   LIG d   1       4.546   1.826  -2.150  0.00  0.00     0.027 H 
ATOM     11  H   LIG d   1       3.853   0.966  -0.755  0.00  0.00     0.027 H 
ENDBRANCH   1   8
BRANCH   2  12
ATOM     12  C   LIG d   1       4.558  -2.395  -3.519  0.00  0.00     0.153 C 
ATOM     13  O   LIG d   1       3.901  -3.248  -2.959  0.00  0.00    -0.293 OA
BRANCH  12  14
ATOM     14  C   LIG d   1       4.914  -2.553  -4.974  0.00  0.00    -0.002 C 
ATOM     15  H   LIG d   1       4.097  -3.052  -5.496  0.00  0.00     0.031 H 
ATOM     16  H   LIG d   1       5.080  -1.571  -5.417  0.00  0.00     0.031 H 
ATOM     17  H   LIG d   1       5.821  -3.149  -5.064  0.00  0.00     0.031 H 
ENDBRANCH  12  14
ENDBRANCH   2  12
TORSDOF 4
ENDMDL
MODEL 5
REMARK VINA RESULT:      -3.5      1.673      1.988
REMARK  4 active torsions:
REMARK  status: ('A' for Active; 'I' for Inactive)
REMARK    1  A    between atoms: C_1  and  C_2 
REMARK    2  A    between atoms: C_2  and  C_7 
REMARK    3  A    between atoms: C_3  and  C_4 
REMARK    4  A    between atoms: C_4  and  C_6 
ROOT
ATOM      1  C   LIG d   1       3.724   0.511  -2.761  0.00  0.00    -0.072 C 
ATOM      2  C   LIG d   1       3.336  -0.598  -3.393  0.00  0.00    -0.021 C 
ATOM      3  H   LIG d   1       2.557  -0.550  -4.139  0.00  0.00     0.065 H 
ENDROOT
BRANCH   1   4
ATOM      4  C   LIG d   1       4.686   0.424  -1.605  0.00  0.00    -0.044 C 
ATOM      5  H   LIG d   1       4.775  -0.615  -1.284  0.00  0.00     0.027 H 
ATOM      6  H   LIG d   1       5.663   0.793  -1.915  0.00  0.00     0.027 H 
ATOM      7  H   LIG d   1       4.315   1.029  -0.777  0.00  0.00     0.027 H 
ENDBRANCH   1   4
BRANCH   1   8
ATOM      8  C   LIG d   1       3.198   1.853  -3.204  0.00  0.00    -0.044 C 
ATOM      9  H   LIG d   1       2.179   1.982  -2.839  0.00  0.00     0.027 H 
ATOM     10  H   LIG d   1       3.832   2.643  -2.801  0.00  0.00     0.027 H 
ATOM     11  H   LIG d   1       3.203   1.903  -4.293  0.00  0.00     0.027 H 
ENDBRANCH   1   8
BRANCH   2  12
ATOM     12  C   LIG d   1       3.967  -1.879  -3.076  0.00  0.00     0.153 C 
ATOM     13  O   LIG d   1       3.482  -2.601  -2.230  0.00  0.00    -0.293 OA
BRANCH  12  14
ATOM     14  C   LIG d   1       5.221  -2.300  -3.797  0.00  0.00    -0.002 C 
ATOM     15  H   LIG d   1       5.780  -1.416  -4.101  0.00  0.00     0.031 H 
ATOM     16  H   LIG d   1       5.836  -2.908  -3.133  0.00  0.00     0.031 H 
ATOM     17  H   LIG d   1       4.955  -2.883  -4.678  0.00  0.00     0.031 H 
ENDBRANCH  12  14
ENDBRANCH   2  12
TORSDOF 4
ENDMDL
MODEL 6
REMARK VINA RESULT:      -3.5      2.160      2.773
REMARK  4 active torsions:
REMARK  status: ('A' for Active; 'I' for Inactive)
REMARK    1  A    between atoms: C_1  and  C_2 
REMARK    2  A    between atoms: C_2  and  C_7 
REMARK    3  A    between atoms: C_3  and  C_4 
REMARK    4  A    between atoms: C_4  and  C_6 
ROOT
ATOM      1  C   LIG d   1       4.850  -0.356  -2.426  0.00  0.00    -0.072 C 
ATOM      2  C   LIG d   1       5.719  -0.304  -3.437  0.00  0.00    -0.021 C 
ATOM      3  H   LIG d   1       6.098   0.649  -3.775  0.00  0.00     0.065 H 
ENDROOT
BRANCH   1   4
ATOM      4  C   LIG d   1       4.191  -1.661  -2.064  0.00  0.00    -0.044 C 
ATOM      5  H   LIG d   1       3.139  -1.487  -1.834  0.00  0.00     0.027 H 
ATOM      6  H   LIG d   1       4.268  -2.353  -2.903  0.00  0.00     0.027 H 
ATOM      7  H   LIG d   1       4.687  -2.090  -1.192  0.00  0.00     0.027 H 
ENDBRANCH   1   4
BRANCH   1   8
ATOM      8  C   LIG d   1       4.528   0.892  -1.644  0.00  0.00    -0.044 C 
ATOM      9  H   LIG d   1       4.703   0.712  -0.584  0.00  0.00     0.027 H 
ATOM     10  H   LIG d   1       5.164   1.709  -1.985  0.00  0.00     0.027 H 
ATOM     11  H   LIG d   1       3.482   1.158  -1.800  0.00  0.00     0.027 H 
ENDBRANCH   1   8
BRANCH   2  12
ATOM     12  C   LIG d   1       6.157  -1.538  -4.089  0.00  0.00     0.153 C 
ATOM     13  O   LIG d   1       5.560  -1.957  -5.058  0.00  0.00    -0.293 OA
BRANCH  12  14
ATOM     14  C   LIG d   1       7.349  -2.289  -3.555  0.00  0.00    -0.002 C 
ATOM     15  H   LIG d   1       8.160  -2.246  -4.281  0.00  0.00     0.031 H 
ATOM     16  H   LIG d   1       7.675  -1.837  -2.619  0.00  0.00     0.031 H 
ATOM     17  H   LIG d   1       7.074  -3.329  -3.379  0.00  0.00     0.031 H 
ENDBRANCH  12  14
ENDBRANCH   2  12
TORSDOF 4
ENDMDL
MODEL 7
REMARK VINA RESULT:      -3.4      1.808      3.383
REMARK  4 active torsions:
REMARK  status: ('A' for Active; 'I' for Inactive)
REMARK    1  A    between atoms: C_1  and  C_2 
REMARK    2  A    between atoms: C_2  and  C_7 
REMARK    3  A    between atoms: C_3  and  C_4 
REMARK    4  A    between atoms: C_4  and  C_6 
ROOT
ATOM      1  C   LIG d   1       3.083  -0.300  -3.341  0.00  0.00    -0.072 C 
ATOM      2  C   LIG d   1       3.762   0.849  -3.325  0.00  0.00    -0.021 C 
ATOM      3  H   LIG d   1       3.434   1.678  -3.935  0.00  0.00     0.065 H 
ENDROOT
BRANCH   1   4
ATOM      4  C   LIG d   1       3.630  -1.508  -2.627  0.00  0.00    -0.044 C 
ATOM      5  H   LIG d   1       2.990  -2.369  -2.825  0.00  0.00     0.027 H 
ATOM      6  H   LIG d   1       4.639  -1.717  -2.983  0.00  0.00     0.027 H 
ATOM      7  H   LIG d   1       3.656  -1.315  -1.554  0.00  0.00     0.027 H 
ENDBRANCH   1   4
BRANCH   1   8
ATOM      8  C   LIG d   1       1.770  -0.388  -4.075  0.00  0.00    -0.044 C 
ATOM      9  H   LIG d   1       1.697   0.430  -4.791  0.00  0.00     0.027 H 
ATOM     10  H   LIG d   1       1.711  -1.340  -4.603  0.00  0.00     0.027 H 
ATOM     11  H   LIG d   1       0.949  -0.319  -3.361  0.00  0.00     0.027 H 
ENDBRANCH   1   8
BRANCH   2  12
ATOM     12  C   LIG d   1       4.948   0.986  -2.481  0.00  0.00     0.153 C 
ATOM     13  O   LIG d   1       4.826   1.217  -1.296  0.00  0.00    -0.293 OA
BRANCH  12  14
ATOM     14  C   LIG d   1       6.321   0.841  -3.082  0.00  0.00    -0.002 C 
ATOM     15  H   LIG d   1       6.850   0.024  -2.589  0.00  0.00     0.031 H 
ATOM     16  H   LIG d   1       6.231   0.624  -4.147  0.00  0.00     0.031 H 
ATOM     17  H   LIG d   1       6.878   1.768  -2.947  0.00  0.00     0.031 H 
ENDBRANCH  12  14
ENDBRANCH   2  12
TORSDOF 4
ENDMDL
MODEL 8
REMARK VINA RESULT:      -3.3      2.123      3.272
REMARK  4 active torsions:
REMARK  status: ('A' for Active; 'I' for Inactive)
REMARK    1  A    between atoms: C_1  and  C_2 
REMARK    2  A    between atoms: C_2  and  C_7 
REMARK    3  A    between atoms: C_3  and  C_4 
REMARK    4  A    between atoms: C_4  and  C_6 
ROOT
ATOM      1  C   LIG d   1       3.343   0.002  -5.644  0.00  0.00    -0.072 C 
ATOM      2  C   LIG d   1       2.580   0.355  -4.608  0.00  0.00    -0.021 C 
ATOM      3  H   LIG d   1       1.664   0.903  -4.775  0.00  0.00     0.065 H 
ENDROOT
BRANCH   1   4
ATOM      4  C   LIG d   1       4.699  -0.610  -5.408  0.00  0.00    -0.044 C 
ATOM      5  H   LIG d   1       4.693  -1.153  -4.462  0.00  0.00     0.027 H 
ATOM      6  H   LIG d   1       4.935  -1.299  -6.219  0.00  0.00     0.027 H 
ATOM      7  H   LIG d   1       5.452   0.178  -5.369  0.00  0.00     0.027 H 
ENDBRANCH   1   4
BRANCH   1   8
ATOM      8  C   LIG d   1       2.849   0.217  -7.052  0.00  0.00    -0.044 C 
ATOM      9  H   LIG d   1       1.772   0.383  -7.037  0.00  0.00     0.027 H 
ATOM     10  H   LIG d   1       3.345   1.085  -7.484  0.00  0.00     0.027 H 
ATOM     11  H   LIG d   1       3.072  -0.665  -7.653  0.00  0.00     0.027 H 
ENDBRANCH   1   8
BRANCH   2  12
ATOM     12  C   LIG d   1       2.983  -0.001  -3.248  0.00  0.00     0.153 C 
ATOM     13  O   LIG d   1       2.770  -1.118  -2.825  0.00  0.00    -0.293 OA
BRANCH  12  14
ATOM     14  C   LIG d   1       3.661   1.020  -2.372  0.00  0.00    -0.002 C 
ATOM     15  H   LIG d   1       3.096   1.139  -1.448  0.00  0.00     0.031 H 
ATOM     16  H   LIG d   1       4.672   0.684  -2.138  0.00  0.00     0.031 H 
ATOM     17  H   LIG d   1       3.708   1.974  -2.895  0.00  0.00     0.031 H 
ENDBRANCH  12  14
ENDBRANCH   2  12
TORSDOF 4
ENDMDL
MODEL 9
REMARK VINA RESULT:      -3.3      1.896      2.747
REMARK  4 active torsions:
REMARK  status: ('A' for Active; 'I' for Inactive)
REMARK    1  A    between atoms: C_1  and  C_2 
REMARK    2  A    between atoms: C_2  and  C_7 
REMARK    3  A    between atoms: C_3  and  C_4 
REMARK    4  A    between atoms: C_4  and  C_6 
ROOT
ATOM      1  C   LIG d   1       4.149  -0.602  -2.763  0.00  0.00    -0.072 C 
ATOM      2  C   LIG d   1       3.935  -1.009  -4.016  0.00  0.00    -0.021 C 
ATOM      3  H   LIG d   1       4.067  -2.050  -4.275  0.00  0.00     0.065 H 
ENDROOT
BRANCH   1   4
ATOM      4  C   LIG d   1       4.132   0.868  -2.434  0.00  0.00    -0.044 C 
ATOM      5  H   LIG d   1       5.145   1.202  -2.207  0.00  0.00     0.027 H 
ATOM      6  H   LIG d   1       3.749   1.427  -3.288  0.00  0.00     0.027 H 
ATOM      7  H   LIG d   1       3.491   1.039  -1.570  0.00  0.00     0.027 H 
ENDBRANCH   1   4
BRANCH   1   8
ATOM      8  C   LIG d   1       4.407  -1.614  -1.676  0.00  0.00    -0.044 C 
ATOM      9  H   LIG d   1       4.107  -2.603  -2.022  0.00  0.00     0.027 H 
ATOM     10  H   LIG d   1       5.468  -1.621  -1.429  0.00  0.00     0.027 H 
ATOM     11  H   LIG d   1       3.830  -1.350  -0.789  0.00  0.00     0.027 H 
ENDBRANCH   1   8
BRANCH   2  12
ATOM     12  C   LIG d   1       3.523  -0.047  -5.037  0.00  0.00     0.153 C 
ATOM     13  O   LIG d   1       4.321   0.334  -5.868  0.00  0.00    -0.293 OA
BRANCH  12  14
ATOM     14  C   LIG d   1       2.109   0.472  -5.056  0.00  0.00    -0.002 C 
ATOM     15  H   LIG d   1       1.436  -0.293  -4.670  0.00  0.00     0.031 H 
ATOM     16  H   LIG d   1       2.040   1.364  -4.433  0.00  0.00     0.031 H 
ATOM     17  H   LIG d   1       1.827   0.721  -6.079  0.00  0.00     0.031 H 
ENDBRANCH  12  14
ENDBRANCH   2  12
TORSDOF 4
ENDMDL
MODEL 10
REMARK VINA RESULT:      -3.3      1.610      2.530
REMARK  4 active torsions:
REMARK  status: ('A' for Active; 'I' for Inactive)
REMARK    1  A    between atoms: C_1  and  C_2 
REMARK    2  A    between atoms: C_2  and  C_7 
REMARK    3  A    between atoms: C_3  and  C_4 
REMARK    4  A    between atoms: C_4  and  C_6 
ROOT
ATOM      1  C   LIG d   1       5.810  -1.337  -3.522  0.00  0.00    -0.072 C 
ATOM      2  C   LIG d   1       4.942  -1.320  -2.508  0.00  0.00    -0.021 C 
ATOM      3  H   LIG d   1       5.076  -1.990  -1.672  0.00  0.00     0.065 H 
ENDROOT
BRANCH   1   4
ATOM      4  C   LIG d   1       5.534  -0.529  -4.764  0.00  0.00    -0.044 C 
ATOM      5  H   LIG d   1       4.701   0.149  -4.579  0.00  0.00     0.027 H 
ATOM      6  H   LIG d   1       6.420   0.048  -5.027  0.00  0.00     0.027 H 
ATOM      7  H   LIG d   1       5.281  -1.201  -5.585  0.00  0.00     0.027 H 
ENDBRANCH   1   4
BRANCH   1   8
ATOM      8  C   LIG d   1       7.066  -2.164  -3.424  0.00  0.00    -0.044 C 
ATOM      9  H   LIG d   1       7.020  -2.980  -4.145  0.00  0.00     0.027 H 
ATOM     10  H   LIG d   1       7.932  -1.537  -3.638  0.00  0.00     0.027 H 
ATOM     11  H   LIG d   1       7.154  -2.573  -2.418  0.00  0.00     0.027 H 
ENDBRANCH   1   8
BRANCH   2  12
ATOM     12  C   LIG d   1       3.809  -0.395  -2.531  0.00  0.00     0.153 C 
ATOM     13  O   LIG d   1       2.729  -0.770  -2.937  0.00  0.00    -0.293 OA
BRANCH  12  14
ATOM     14  C   LIG d   1       3.984   1.022  -2.051  0.00  0.00    -0.002 C 
ATOM     15  H   LIG d   1       4.710   1.043  -1.238  0.00  0.00     0.031 H 
ATOM     16  H   LIG d   1       4.340   1.643  -2.872  0.00  0.00     0.031 H 
ATOM     17  H   LIG d   1       3.029   1.405  -1.694  0.00  0.00     0.031 H 
ENDBRANCH  12  14
ENDBRANCH   2  12
TORSDOF 4
ENDMDL
