MODEL 1
REMARK VINA RESULT:      -6.7      0.000      0.000
REMARK  6 active torsions:
REMARK  status: ('A' for Active; 'I' for Inactive)
REMARK    1  A    between atoms: C_1  and  C_2 
REMARK    2  A    between atoms: C_3  and  O_23 
REMARK    3  A    between atoms: C_10  and  C_11 
REMARK    4  A    between atoms: N_13  and  C_20 
REMARK    5  A    between atoms: O_23  and  C_24 
REMARK    6  A    between atoms: C_24  and  C_26 
ROOT
ATOM      1  C   LIG d   1       7.377  -8.262  -5.359  0.00  0.00     0.035 A 
ATOM      2  C   LIG d   1       6.525  -9.323  -5.623  0.00  0.00     0.139 A 
ATOM      3  C   LIG d   1       5.171  -9.100  -5.862  0.00  0.00    -0.018 A 
ATOM      4  C   LIG d   1       4.669  -7.829  -5.840  0.00  0.00    -0.044 A 
ATOM      5  C   LIG d   1       5.515  -6.753  -5.575  0.00  0.00     0.068 A 
ATOM      6  C   LIG d   1       6.882  -6.966  -5.333  0.00  0.00     0.146 A 
ATOM      7  O   LIG d   1       7.474  -5.774  -5.107  0.00  0.00    -0.451 OA
ATOM      8  C   LIG d   1       6.584  -4.756  -5.182  0.00  0.00     0.176 A 
ATOM      9  C   LIG d   1       6.868  -3.436  -5.003  0.00  0.00    -0.006 C 
ATOM     10  C   LIG d   1       5.305  -5.297  -5.473  0.00  0.00     0.232 A 
ATOM     11  O   LIG d   1       4.256  -4.688  -5.611  0.00  0.00    -0.283 OA
ATOM     12  H   LIG d   1       4.517  -9.934  -6.066  0.00  0.00     0.066 H 
ATOM     13  H   LIG d   1       3.619  -7.659  -6.026  0.00  0.00     0.063 H 
ATOM     14  H   LIG d   1       7.847  -3.136  -4.659  0.00  0.00     0.066 H 
ENDROOT
BRANCH   9  15
ATOM     15  C   LIG d   1       5.848  -2.425  -5.275  0.00  0.00     0.004 A 
ATOM     16  C   LIG d   1       4.868  -1.876  -4.318  0.00  0.00     0.007 A 
ATOM     17  C   LIG d   1       4.105  -0.942  -5.039  0.00  0.00     0.049 A 
ATOM     18  C   LIG d   1       4.602  -2.104  -2.971  0.00  0.00    -0.052 A 
ATOM     19  N   LIG d   1       4.582  -0.921  -6.334  0.00  0.00    -0.349 N 
ATOM     20  C   LIG d   1       3.086  -0.251  -4.392  0.00  0.00    -0.038 A 
ATOM     21  C   LIG d   1       5.606  -1.799  -6.479  0.00  0.00     0.013 A 
ATOM     22  H   LIG d   1       6.150  -1.976  -7.395  0.00  0.00     0.082 H 
ATOM     23  C   LIG d   1       2.834  -0.487  -3.058  0.00  0.00    -0.060 A 
ATOM     24  H   LIG d   1       2.493   0.470  -4.935  0.00  0.00     0.064 H 
ATOM     25  C   LIG d   1       3.588  -1.410  -2.348  0.00  0.00    -0.061 A 
ATOM     26  H   LIG d   1       2.042   0.052  -2.560  0.00  0.00     0.062 H 
ATOM     27  H   LIG d   1       3.380  -1.585  -1.304  0.00  0.00     0.062 H 
ATOM     28  H   LIG d   1       5.188  -2.824  -2.417  0.00  0.00     0.062 H 
BRANCH  19  29
ATOM     29  C   LIG d   1       4.052  -0.073  -7.405  0.00  0.00     0.012 C 
ATOM     30  H   LIG d   1       4.515  -0.350  -8.351  0.00  0.00     0.046 H 
ATOM     31  H   LIG d   1       4.274   0.972  -7.183  0.00  0.00     0.046 H 
ATOM     32  H   LIG d   1       2.973  -0.208  -7.474  0.00  0.00     0.046 H 
ENDBRANCH  19  29
ENDBRANCH   9  15
BRANCH   1  33
ATOM     33  C   LIG d   1       8.840  -8.517  -5.101  0.00  0.00    -0.033 C 
ATOM     34  H   LIG d   1       9.440  -7.917  -5.785  0.00  0.00     0.028 H 
ATOM     35  H   LIG d   1       9.081  -8.248  -4.074  0.00  0.00     0.028 H 
ATOM     36  H   LIG d   1       9.057  -9.574  -5.260  0.00  0.00     0.028 H 
ENDBRANCH   1  33
BRANCH   2  37
ATOM     37  O   LIG d   1       7.013 -10.589  -5.648  0.00  0.00    -0.420 OA
BRANCH  37  38
ATOM     38  C   LIG d   1       6.527 -11.473  -4.752  0.00  0.00     0.380 C 
ATOM     39  O   LIG d   1       5.976 -12.488  -5.135  0.00  0.00    -0.241 OA
BRANCH  38  40
ATOM     40  C   LIG d   1       6.664 -11.212  -3.317  0.00  0.00     0.212 A 
ATOM     41  O   LIG d   1       7.818 -10.971  -2.662  0.00  0.00    -0.456 OA
ATOM     42  C   LIG d   1       7.558 -10.773  -1.362  0.00  0.00     0.093 A 
ATOM     43  C   LIG d   1       6.227 -10.893  -1.162  0.00  0.00    -0.023 A 
ATOM     44  H   LIG d   1       8.293 -10.558  -0.600  0.00  0.00     0.103 H 
ATOM     45  C   LIG d   1       5.645 -11.174  -2.407  0.00  0.00    -0.009 A 
ATOM     46  H   LIG d   1       5.709 -10.791  -0.220  0.00  0.00     0.065 H 
ATOM     47  H   LIG d   1       4.595 -11.329  -2.608  0.00  0.00     0.066 H 
ENDBRANCH  38  40
ENDBRANCH  37  38
ENDBRANCH   2  37
TORSDOF 6
ENDMDL
MODEL 2
REMARK VINA RESULT:      -6.7      6.080      8.344
REMARK  6 active torsions:
REMARK  status: ('A' for Active; 'I' for Inactive)
REMARK    1  A    between atoms: C_1  and  C_2 
REMARK    2  A    between atoms: C_3  and  O_23 
REMARK    3  A    between atoms: C_10  and  C_11 
REMARK    4  A    between atoms: N_13  and  C_20 
REMARK    5  A    between atoms: O_23  and  C_24 
REMARK    6  A    between atoms: C_24  and  C_26 
ROOT
ATOM      1  C   LIG d   1       3.076  -2.574 -10.757  0.00  0.00     0.035 A 
ATOM      2  C   LIG d   1       1.964  -1.907 -11.247  0.00  0.00     0.139 A 
ATOM      3  C   LIG d   1       1.383  -0.871 -10.520  0.00  0.00    -0.018 A 
ATOM      4  C   LIG d   1       1.905  -0.500  -9.313  0.00  0.00    -0.044 A 
ATOM      5  C   LIG d   1       3.023  -1.162  -8.807  0.00  0.00     0.068 A 
ATOM      6  C   LIG d   1       3.618  -2.208  -9.533  0.00  0.00     0.146 A 
ATOM      7  O   LIG d   1       4.673  -2.677  -8.833  0.00  0.00    -0.451 OA
ATOM      8  C   LIG d   1       4.832  -2.006  -7.667  0.00  0.00     0.176 A 
ATOM      9  C   LIG d   1       5.803  -2.239  -6.741  0.00  0.00    -0.006 C 
ATOM     10  C   LIG d   1       3.813  -1.023  -7.571  0.00  0.00     0.232 A 
ATOM     11  O   LIG d   1       3.631  -0.230  -6.661  0.00  0.00    -0.283 OA
ATOM     12  H   LIG d   1       0.516  -0.360 -10.912  0.00  0.00     0.066 H 
ATOM     13  H   LIG d   1       1.453   0.304  -8.752  0.00  0.00     0.063 H 
ATOM     14  H   LIG d   1       6.456  -3.094  -6.845  0.00  0.00     0.066 H 
ENDROOT
BRANCH   9  15
ATOM     15  C   LIG d   1       5.962  -1.334  -5.604  0.00  0.00     0.004 A 
ATOM     16  C   LIG d   1       5.265  -1.412  -4.306  0.00  0.00     0.007 A 
ATOM     17  C   LIG d   1       5.744  -0.333  -3.545  0.00  0.00     0.049 A 
ATOM     18  C   LIG d   1       4.317  -2.278  -3.770  0.00  0.00    -0.052 A 
ATOM     19  N   LIG d   1       6.662   0.350  -4.316  0.00  0.00    -0.349 N 
ATOM     20  C   LIG d   1       5.262  -0.143  -2.254  0.00  0.00    -0.038 A 
ATOM     21  C   LIG d   1       6.789  -0.234  -5.534  0.00  0.00     0.013 A 
ATOM     22  H   LIG d   1       7.441   0.109  -6.325  0.00  0.00     0.082 H 
ATOM     23  C   LIG d   1       4.324  -1.009  -1.736  0.00  0.00    -0.060 A 
ATOM     24  H   LIG d   1       5.623   0.683  -1.658  0.00  0.00     0.064 H 
ATOM     25  C   LIG d   1       3.851  -2.073  -2.489  0.00  0.00    -0.061 A 
ATOM     26  H   LIG d   1       3.952  -0.858  -0.733  0.00  0.00     0.062 H 
ATOM     27  H   LIG d   1       3.116  -2.744  -2.071  0.00  0.00     0.062 H 
ATOM     28  H   LIG d   1       3.947  -3.108  -4.356  0.00  0.00     0.062 H 
BRANCH  19  29
ATOM     29  C   LIG d   1       7.394   1.543  -3.882  0.00  0.00     0.012 C 
ATOM     30  H   LIG d   1       7.459   1.554  -2.795  0.00  0.00     0.046 H 
ATOM     31  H   LIG d   1       6.869   2.435  -4.225  0.00  0.00     0.046 H 
ATOM     32  H   LIG d   1       8.398   1.527  -4.306  0.00  0.00     0.046 H 
ENDBRANCH  19  29
ENDBRANCH   9  15
BRANCH   1  33
ATOM     33  C   LIG d   1       3.695  -3.693 -11.553  0.00  0.00    -0.033 C 
ATOM     34  H   LIG d   1       3.063  -3.921 -12.412  0.00  0.00     0.028 H 
ATOM     35  H   LIG d   1       4.683  -3.391 -11.898  0.00  0.00     0.028 H 
ATOM     36  H   LIG d   1       3.785  -4.579 -10.924  0.00  0.00     0.028 H 
ENDBRANCH   1  33
BRANCH   2  37
ATOM     37  O   LIG d   1       1.437  -2.267 -12.445  0.00  0.00    -0.420 OA
BRANCH  37  38
ATOM     38  C   LIG d   1       0.216  -2.841 -12.453  0.00  0.00     0.380 C 
ATOM     39  O   LIG d   1      -0.718  -2.277 -12.991  0.00  0.00    -0.241 OA
BRANCH  38  40
ATOM     40  C   LIG d   1       0.015  -4.144 -11.814  0.00  0.00     0.212 A 
ATOM     41  O   LIG d   1      -0.504  -4.354 -10.586  0.00  0.00    -0.456 OA
ATOM     42  C   LIG d   1      -0.538  -5.670 -10.338  0.00  0.00     0.093 A 
ATOM     43  C   LIG d   1      -0.032  -6.327 -11.405  0.00  0.00    -0.023 A 
ATOM     44  H   LIG d   1      -0.907  -6.129  -9.432  0.00  0.00     0.103 H 
ATOM     45  C   LIG d   1       0.326  -5.360 -12.355  0.00  0.00    -0.009 A 
ATOM     46  H   LIG d   1       0.077  -7.397 -11.506  0.00  0.00     0.065 H 
ATOM     47  H   LIG d   1       0.761  -5.541 -13.327  0.00  0.00     0.066 H 
ENDBRANCH  38  40
ENDBRANCH  37  38
ENDBRANCH   2  37
TORSDOF 6
ENDMDL
MODEL 3
REMARK VINA RESULT:      -6.7      6.082      8.838
REMARK  6 active torsions:
REMARK  status: ('A' for Active; 'I' for Inactive)
REMARK    1  A    between atoms: C_1  and  C_2 
REMARK    2  A    between atoms: C_3  and  O_23 
REMARK    3  A    between atoms: C_10  and  C_11 
REMARK    4  A    between atoms: N_13  and  C_20 
REMARK    5  A    between atoms: O_23  and  C_24 
REMARK    6  A    between atoms: C_24  and  C_26 
ROOT
ATOM      1  C   LIG d   1       2.453  -3.010  -9.977  0.00  0.00     0.035 A 
ATOM      2  C   LIG d   1       1.598  -2.230 -10.740  0.00  0.00     0.139 A 
ATOM      3  C   LIG d   1       1.395  -0.889 -10.426  0.00  0.00    -0.018 A 
ATOM      4  C   LIG d   1       2.039  -0.327  -9.360  0.00  0.00    -0.044 A 
ATOM      5  C   LIG d   1       2.901  -1.100  -8.583  0.00  0.00     0.068 A 
ATOM      6  C   LIG d   1       3.114  -2.454  -8.892  0.00  0.00     0.146 A 
ATOM      7  O   LIG d   1       3.984  -2.971  -7.998  0.00  0.00    -0.451 OA
ATOM      8  C   LIG d   1       4.377  -2.042  -7.094  0.00  0.00     0.176 A 
ATOM      9  C   LIG d   1       5.248  -2.250  -6.067  0.00  0.00    -0.006 C 
ATOM     10  C   LIG d   1       3.726  -0.818  -7.395  0.00  0.00     0.232 A 
ATOM     11  O   LIG d   1       3.829   0.242  -6.798  0.00  0.00    -0.283 OA
ATOM     12  H   LIG d   1       0.726  -0.291 -11.027  0.00  0.00     0.066 H 
ATOM     13  H   LIG d   1       1.879   0.713  -9.118  0.00  0.00     0.063 H 
ATOM     14  H   LIG d   1       5.592  -3.250  -5.844  0.00  0.00     0.066 H 
ENDROOT
BRANCH   9  15
ATOM     15  C   LIG d   1       5.715  -1.121  -5.265  0.00  0.00     0.004 A 
ATOM     16  C   LIG d   1       5.058  -0.550  -4.073  0.00  0.00     0.007 A 
ATOM     17  C   LIG d   1       5.876   0.512  -3.653  0.00  0.00     0.049 A 
ATOM     18  C   LIG d   1       3.894  -0.853  -3.374  0.00  0.00    -0.052 A 
ATOM     19  N   LIG d   1       6.948   0.584  -4.519  0.00  0.00    -0.349 N 
ATOM     20  C   LIG d   1       5.509   1.252  -2.534  0.00  0.00    -0.038 A 
ATOM     21  C   LIG d   1       6.853  -0.374  -5.474  0.00  0.00     0.013 A 
ATOM     22  H   LIG d   1       7.563  -0.529  -6.274  0.00  0.00     0.082 H 
ATOM     23  C   LIG d   1       4.354   0.941  -1.851  0.00  0.00    -0.060 A 
ATOM     24  H   LIG d   1       6.130   2.071  -2.201  0.00  0.00     0.064 H 
ATOM     25  C   LIG d   1       3.547  -0.107  -2.268  0.00  0.00    -0.061 A 
ATOM     26  H   LIG d   1       4.073   1.518  -0.983  0.00  0.00     0.062 H 
ATOM     27  H   LIG d   1       2.644  -0.341  -1.724  0.00  0.00     0.062 H 
ATOM     28  H   LIG d   1       3.264  -1.669  -3.698  0.00  0.00     0.062 H 
BRANCH  19  29
ATOM     29  C   LIG d   1       8.035   1.562  -4.422  0.00  0.00     0.012 C 
ATOM     30  H   LIG d   1       8.895   1.207  -4.989  0.00  0.00     0.046 H 
ATOM     31  H   LIG d   1       8.316   1.691  -3.376  0.00  0.00     0.046 H 
ATOM     32  H   LIG d   1       7.701   2.517  -4.828  0.00  0.00     0.046 H 
ENDBRANCH  19  29
ENDBRANCH   9  15
BRANCH   1  33
ATOM     33  C   LIG d   1       2.664  -4.460 -10.328  0.00  0.00    -0.033 C 
ATOM     34  H   LIG d   1       3.730  -4.687 -10.314  0.00  0.00     0.028 H 
ATOM     35  H   LIG d   1       2.149  -5.089  -9.602  0.00  0.00     0.028 H 
ATOM     36  H   LIG d   1       2.265  -4.654 -11.324  0.00  0.00     0.028 H 
ENDBRANCH   1  33
BRANCH   2  37
ATOM     37  O   LIG d   1       0.953  -2.778 -11.802  0.00  0.00    -0.420 OA
BRANCH  37  38
ATOM     38  C   LIG d   1       1.293  -2.355 -13.037  0.00  0.00     0.380 C 
ATOM     39  O   LIG d   1       0.430  -1.996 -13.816  0.00  0.00    -0.241 OA
BRANCH  38  40
ATOM     40  C   LIG d   1       2.701  -2.326 -13.439  0.00  0.00     0.212 A 
ATOM     41  O   LIG d   1       3.504  -3.399 -13.592  0.00  0.00    -0.456 OA
ATOM     42  C   LIG d   1       4.724  -2.991 -13.970  0.00  0.00     0.093 A 
ATOM     43  C   LIG d   1       4.723  -1.642 -14.058  0.00  0.00    -0.023 A 
ATOM     44  H   LIG d   1       5.568  -3.635 -14.168  0.00  0.00     0.103 H 
ATOM     45  C   LIG d   1       3.433  -1.206 -13.720  0.00  0.00    -0.009 A 
ATOM     46  H   LIG d   1       5.558  -1.018 -14.337  0.00  0.00     0.065 H 
ATOM     47  H   LIG d   1       3.086  -0.184 -13.689  0.00  0.00     0.066 H 
ENDBRANCH  38  40
ENDBRANCH  37  38
ENDBRANCH   2  37
TORSDOF 6
ENDMDL
MODEL 4
REMARK VINA RESULT:      -6.6      7.190     12.443
REMARK  6 active torsions:
REMARK  status: ('A' for Active; 'I' for Inactive)
REMARK    1  A    between atoms: C_1  and  C_2 
REMARK    2  A    between atoms: C_3  and  O_23 
REMARK    3  A    between atoms: C_10  and  C_11 
REMARK    4  A    between atoms: N_13  and  C_20 
REMARK    5  A    between atoms: O_23  and  C_24 
REMARK    6  A    between atoms: C_24  and  C_26 
ROOT
ATOM      1  C   LIG d   1       9.936   4.330  -7.178  0.00  0.00     0.035 A 
ATOM      2  C   LIG d   1       9.755   4.544  -8.536  0.00  0.00     0.139 A 
ATOM      3  C   LIG d   1       8.893   3.735  -9.271  0.00  0.00    -0.018 A 
ATOM      4  C   LIG d   1       8.215   2.718  -8.659  0.00  0.00    -0.044 A 
ATOM      5  C   LIG d   1       8.387   2.491  -7.294  0.00  0.00     0.068 A 
ATOM      6  C   LIG d   1       9.254   3.302  -6.543  0.00  0.00     0.146 A 
ATOM      7  O   LIG d   1       9.243   2.879  -5.261  0.00  0.00    -0.451 OA
ATOM      8  C   LIG d   1       8.414   1.821  -5.095  0.00  0.00     0.176 A 
ATOM      9  C   LIG d   1       8.182   1.167  -3.923  0.00  0.00    -0.006 C 
ATOM     10  C   LIG d   1       7.830   1.506  -6.350  0.00  0.00     0.232 A 
ATOM     11  O   LIG d   1       7.036   0.612  -6.595  0.00  0.00    -0.283 OA
ATOM     12  H   LIG d   1       8.761   3.911 -10.328  0.00  0.00     0.066 H 
ATOM     13  H   LIG d   1       7.547   2.092  -9.231  0.00  0.00     0.063 H 
ATOM     14  H   LIG d   1       8.771   1.402  -3.048  0.00  0.00     0.066 H 
ENDROOT
BRANCH   9  15
ATOM     15  C   LIG d   1       7.138   0.147  -3.848  0.00  0.00     0.004 A 
ATOM     16  C   LIG d   1       5.773   0.315  -3.314  0.00  0.00     0.007 A 
ATOM     17  C   LIG d   1       5.147  -0.935  -3.454  0.00  0.00     0.049 A 
ATOM     18  C   LIG d   1       5.079   1.385  -2.757  0.00  0.00    -0.052 A 
ATOM     19  N   LIG d   1       6.058  -1.798  -4.028  0.00  0.00    -0.349 N 
ATOM     20  C   LIG d   1       3.831  -1.088  -3.030  0.00  0.00    -0.038 A 
ATOM     21  C   LIG d   1       7.235  -1.165  -4.256  0.00  0.00     0.013 A 
ATOM     22  H   LIG d   1       8.112  -1.620  -4.694  0.00  0.00     0.082 H 
ATOM     23  C   LIG d   1       3.156  -0.020  -2.481  0.00  0.00    -0.060 A 
ATOM     24  H   LIG d   1       3.338  -2.044  -3.133  0.00  0.00     0.064 H 
ATOM     25  C   LIG d   1       3.776   1.213  -2.344  0.00  0.00    -0.061 A 
ATOM     26  H   LIG d   1       2.134  -0.144  -2.154  0.00  0.00     0.062 H 
ATOM     27  H   LIG d   1       3.236   2.042  -1.911  0.00  0.00     0.062 H 
ATOM     28  H   LIG d   1       5.561   2.346  -2.648  0.00  0.00     0.062 H 
BRANCH  19  29
ATOM     29  C   LIG d   1       5.791  -3.205  -4.342  0.00  0.00     0.012 C 
ATOM     30  H   LIG d   1       6.724  -3.703  -4.600  0.00  0.00     0.046 H 
ATOM     31  H   LIG d   1       5.101  -3.264  -5.184  0.00  0.00     0.046 H 
ATOM     32  H   LIG d   1       5.346  -3.692  -3.474  0.00  0.00     0.046 H 
ENDBRANCH  19  29
ENDBRANCH   9  15
BRANCH   1  33
ATOM     33  C   LIG d   1      10.872   5.213  -6.395  0.00  0.00    -0.033 C 
ATOM     34  H   LIG d   1      10.318   6.059  -5.987  0.00  0.00     0.028 H 
ATOM     35  H   LIG d   1      11.315   4.642  -5.580  0.00  0.00     0.028 H 
ATOM     36  H   LIG d   1      11.661   5.579  -7.052  0.00  0.00     0.028 H 
ENDBRANCH   1  33
BRANCH   2  37
ATOM     37  O   LIG d   1      10.424   5.551  -9.154  0.00  0.00    -0.420 OA
BRANCH  37  38
ATOM     38  C   LIG d   1       9.705   6.583  -9.642  0.00  0.00     0.380 C 
ATOM     39  O   LIG d   1       9.208   7.392  -8.882  0.00  0.00    -0.241 OA
BRANCH  38  40
ATOM     40  C   LIG d   1       9.524   6.730 -11.088  0.00  0.00     0.212 A 
ATOM     41  O   LIG d   1       8.771   5.935 -11.877  0.00  0.00    -0.456 OA
ATOM     42  C   LIG d   1       8.840   6.373 -13.143  0.00  0.00     0.093 A 
ATOM     43  C   LIG d   1       9.649   7.454 -13.185  0.00  0.00    -0.023 A 
ATOM     44  H   LIG d   1       8.335   5.930 -13.988  0.00  0.00     0.103 H 
ATOM     45  C   LIG d   1      10.093   7.691 -11.875  0.00  0.00    -0.009 A 
ATOM     46  H   LIG d   1       9.906   8.028 -14.063  0.00  0.00     0.065 H 
ATOM     47  H   LIG d   1      10.754   8.481 -11.552  0.00  0.00     0.066 H 
ENDBRANCH  38  40
ENDBRANCH  37  38
ENDBRANCH   2  37
TORSDOF 6
ENDMDL
MODEL 5
REMARK VINA RESULT:      -6.5      2.364      3.478
REMARK  6 active torsions:
REMARK  status: ('A' for Active; 'I' for Inactive)
REMARK    1  A    between atoms: C_1  and  C_2 
REMARK    2  A    between atoms: C_3  and  O_23 
REMARK    3  A    between atoms: C_10  and  C_11 
REMARK    4  A    between atoms: N_13  and  C_20 
REMARK    5  A    between atoms: O_23  and  C_24 
REMARK    6  A    between atoms: C_24  and  C_26 
ROOT
ATOM      1  C   LIG d   1       9.202  -7.546  -4.239  0.00  0.00     0.035 A 
ATOM      2  C   LIG d   1       9.989  -8.045  -3.213  0.00  0.00     0.139 A 
ATOM      3  C   LIG d   1      10.391  -7.222  -2.165  0.00  0.00    -0.018 A 
ATOM      4  C   LIG d   1      10.012  -5.909  -2.137  0.00  0.00    -0.044 A 
ATOM      5  C   LIG d   1       9.221  -5.393  -3.162  0.00  0.00     0.068 A 
ATOM      6  C   LIG d   1       8.809  -6.215  -4.224  0.00  0.00     0.146 A 
ATOM      7  O   LIG d   1       8.059  -5.482  -5.075  0.00  0.00    -0.451 OA
ATOM      8  C   LIG d   1       7.937  -4.202  -4.652  0.00  0.00     0.176 A 
ATOM      9  C   LIG d   1       7.244  -3.216  -5.287  0.00  0.00    -0.006 C 
ATOM     10  C   LIG d   1       8.655  -4.060  -3.436  0.00  0.00     0.232 A 
ATOM     11  O   LIG d   1       8.778  -3.050  -2.761  0.00  0.00    -0.283 OA
ATOM     12  H   LIG d   1      11.005  -7.622  -1.372  0.00  0.00     0.066 H 
ATOM     13  H   LIG d   1      10.326  -5.273  -1.323  0.00  0.00     0.063 H 
ATOM     14  H   LIG d   1       6.836  -3.391  -6.272  0.00  0.00     0.066 H 
ENDROOT
BRANCH   9  15
ATOM     15  C   LIG d   1       7.054  -1.921  -4.638  0.00  0.00     0.004 A 
ATOM     16  C   LIG d   1       5.996  -1.561  -3.673  0.00  0.00     0.007 A 
ATOM     17  C   LIG d   1       6.224  -0.217  -3.333  0.00  0.00     0.049 A 
ATOM     18  C   LIG d   1       4.929  -2.253  -3.108  0.00  0.00    -0.052 A 
ATOM     19  N   LIG d   1       7.334   0.210  -4.034  0.00  0.00    -0.349 N 
ATOM     20  C   LIG d   1       5.375   0.409  -2.428  0.00  0.00    -0.038 A 
ATOM     21  C   LIG d   1       7.822  -0.790  -4.809  0.00  0.00     0.013 A 
ATOM     22  H   LIG d   1       8.683  -0.712  -5.458  0.00  0.00     0.082 H 
ATOM     23  C   LIG d   1       4.323  -0.288  -1.875  0.00  0.00    -0.060 A 
ATOM     24  H   LIG d   1       5.540   1.443  -2.158  0.00  0.00     0.064 H 
ATOM     25  C   LIG d   1       4.099  -1.614  -2.213  0.00  0.00    -0.061 A 
ATOM     26  H   LIG d   1       3.666   0.203  -1.172  0.00  0.00     0.062 H 
ATOM     27  H   LIG d   1       3.270  -2.149  -1.773  0.00  0.00     0.062 H 
ATOM     28  H   LIG d   1       4.753  -3.286  -3.371  0.00  0.00     0.062 H 
BRANCH  19  29
ATOM     29  C   LIG d   1       7.902   1.559  -3.955  0.00  0.00     0.012 C 
ATOM     30  H   LIG d   1       7.237   2.263  -4.454  0.00  0.00     0.046 H 
ATOM     31  H   LIG d   1       8.878   1.571  -4.442  0.00  0.00     0.046 H 
ATOM     32  H   LIG d   1       8.014   1.845  -2.909  0.00  0.00     0.046 H 
ENDBRANCH  19  29
ENDBRANCH   9  15
BRANCH   1  33
ATOM     33  C   LIG d   1       8.773  -8.448  -5.367  0.00  0.00    -0.033 C 
ATOM     34  H   LIG d   1       7.969  -7.972  -5.929  0.00  0.00     0.028 H 
ATOM     35  H   LIG d   1       9.619  -8.631  -6.028  0.00  0.00     0.028 H 
ATOM     36  H   LIG d   1       8.419  -9.395  -4.960  0.00  0.00     0.028 H 
ENDBRANCH   1  33
BRANCH   2  37
ATOM     37  O   LIG d   1      10.371  -9.348  -3.231  0.00  0.00    -0.420 OA
BRANCH  37  38
ATOM     38  C   LIG d   1       9.892 -10.162  -2.268  0.00  0.00     0.380 C 
ATOM     39  O   LIG d   1      10.654 -10.677  -1.472  0.00  0.00    -0.241 OA
BRANCH  38  40
ATOM     40  C   LIG d   1       8.454 -10.424  -2.180  0.00  0.00     0.212 A 
ATOM     41  O   LIG d   1       7.699 -11.029  -3.121  0.00  0.00    -0.456 OA
ATOM     42  C   LIG d   1       6.430 -11.099  -2.695  0.00  0.00     0.093 A 
ATOM     43  C   LIG d   1       6.350 -10.530  -1.471  0.00  0.00    -0.023 A 
ATOM     44  H   LIG d   1       5.607 -11.535  -3.242  0.00  0.00     0.103 H 
ATOM     45  C   LIG d   1       7.640 -10.095  -1.132  0.00  0.00    -0.009 A 
ATOM     46  H   LIG d   1       5.460 -10.430  -0.868  0.00  0.00     0.065 H 
ATOM     47  H   LIG d   1       7.933  -9.597  -0.220  0.00  0.00     0.066 H 
ENDBRANCH  38  40
ENDBRANCH  37  38
ENDBRANCH   2  37
TORSDOF 6
ENDMDL
MODEL 6
REMARK VINA RESULT:      -6.5      6.063      9.485
REMARK  6 active torsions:
REMARK  status: ('A' for Active; 'I' for Inactive)
REMARK    1  A    between atoms: C_1  and  C_2 
REMARK    2  A    between atoms: C_3  and  O_23 
REMARK    3  A    between atoms: C_10  and  C_11 
REMARK    4  A    between atoms: N_13  and  C_20 
REMARK    5  A    between atoms: O_23  and  C_24 
REMARK    6  A    between atoms: C_24  and  C_26 
ROOT
ATOM      1  C   LIG d   1       2.447  -3.100  -9.950  0.00  0.00     0.035 A 
ATOM      2  C   LIG d   1       1.571  -2.339 -10.708  0.00  0.00     0.139 A 
ATOM      3  C   LIG d   1       1.352  -0.998 -10.403  0.00  0.00    -0.018 A 
ATOM      4  C   LIG d   1       2.002  -0.417  -9.351  0.00  0.00    -0.044 A 
ATOM      5  C   LIG d   1       2.886  -1.170  -8.580  0.00  0.00     0.068 A 
ATOM      6  C   LIG d   1       3.114  -2.524  -8.879  0.00  0.00     0.146 A 
ATOM      7  O   LIG d   1       4.004  -3.021  -7.992  0.00  0.00    -0.451 OA
ATOM      8  C   LIG d   1       4.396  -2.078  -7.102  0.00  0.00     0.176 A 
ATOM      9  C   LIG d   1       5.283  -2.264  -6.085  0.00  0.00    -0.006 C 
ATOM     10  C   LIG d   1       3.723  -0.866  -7.405  0.00  0.00     0.232 A 
ATOM     11  O   LIG d   1       3.818   0.201  -6.820  0.00  0.00    -0.283 OA
ATOM     12  H   LIG d   1       0.667  -0.416 -11.001  0.00  0.00     0.066 H 
ATOM     13  H   LIG d   1       1.831   0.623  -9.117  0.00  0.00     0.063 H 
ATOM     14  H   LIG d   1       5.645  -3.256  -5.858  0.00  0.00     0.066 H 
ENDROOT
BRANCH   9  15
ATOM     15  C   LIG d   1       5.745  -1.121  -5.300  0.00  0.00     0.004 A 
ATOM     16  C   LIG d   1       5.105  -0.559  -4.094  0.00  0.00     0.007 A 
ATOM     17  C   LIG d   1       5.910   0.523  -3.699  0.00  0.00     0.049 A 
ATOM     18  C   LIG d   1       3.966  -0.885  -3.365  0.00  0.00    -0.052 A 
ATOM     19  N   LIG d   1       6.958   0.614  -4.592  0.00  0.00    -0.349 N 
ATOM     20  C   LIG d   1       5.554   1.260  -2.575  0.00  0.00    -0.038 A 
ATOM     21  C   LIG d   1       6.861  -0.350  -5.541  0.00  0.00     0.013 A 
ATOM     22  H   LIG d   1       7.554  -0.493  -6.358  0.00  0.00     0.082 H 
ATOM     23  C   LIG d   1       4.423   0.926  -1.862  0.00  0.00    -0.060 A 
ATOM     24  H   LIG d   1       6.165   2.095  -2.261  0.00  0.00     0.064 H 
ATOM     25  C   LIG d   1       3.630  -0.142  -2.254  0.00  0.00    -0.061 A 
ATOM     26  H   LIG d   1       4.152   1.502  -0.990  0.00  0.00     0.062 H 
ATOM     27  H   LIG d   1       2.747  -0.392  -1.687  0.00  0.00     0.062 H 
ATOM     28  H   LIG d   1       3.346  -1.716  -3.670  0.00  0.00     0.062 H 
BRANCH  19  29
ATOM     29  C   LIG d   1       8.024   1.617  -4.527  0.00  0.00     0.012 C 
ATOM     30  H   LIG d   1       8.917   1.231  -5.017  0.00  0.00     0.046 H 
ATOM     31  H   LIG d   1       8.249   1.841  -3.483  0.00  0.00     0.046 H 
ATOM     32  H   LIG d   1       7.698   2.527  -5.030  0.00  0.00     0.046 H 
ENDBRANCH  19  29
ENDBRANCH   9  15
BRANCH   1  33
ATOM     33  C   LIG d   1       2.674  -4.550 -10.291  0.00  0.00    -0.033 C 
ATOM     34  H   LIG d   1       2.084  -5.177  -9.622  0.00  0.00     0.028 H 
ATOM     35  H   LIG d   1       2.373  -4.734 -11.321  0.00  0.00     0.028 H 
ATOM     36  H   LIG d   1       3.731  -4.789 -10.173  0.00  0.00     0.028 H 
ENDBRANCH   1  33
BRANCH   2  37
ATOM     37  O   LIG d   1       0.920  -2.906 -11.756  0.00  0.00    -0.420 OA
BRANCH  37  38
ATOM     38  C   LIG d   1       1.049  -2.330 -12.969  0.00  0.00     0.380 C 
ATOM     39  O   LIG d   1       2.155  -2.102 -13.420  0.00  0.00    -0.241 OA
BRANCH  38  40
ATOM     40  C   LIG d   1      -0.144  -1.980 -13.744  0.00  0.00     0.212 A 
ATOM     41  O   LIG d   1      -0.288  -2.111 -15.079  0.00  0.00    -0.456 OA
ATOM     42  C   LIG d   1      -1.511  -1.694 -15.436  0.00  0.00     0.093 A 
ATOM     43  C   LIG d   1      -2.169  -1.281 -14.331  0.00  0.00    -0.023 A 
ATOM     44  H   LIG d   1      -1.903  -1.687 -16.442  0.00  0.00     0.103 H 
ATOM     45  C   LIG d   1      -1.303  -1.459 -13.242  0.00  0.00    -0.009 A 
ATOM     46  H   LIG d   1      -3.174  -0.887 -14.293  0.00  0.00     0.065 H 
ATOM     47  H   LIG d   1      -1.513  -1.230 -12.208  0.00  0.00     0.066 H 
ENDBRANCH  38  40
ENDBRANCH  37  38
ENDBRANCH   2  37
TORSDOF 6
ENDMDL
MODEL 7
REMARK VINA RESULT:      -6.4      1.659      2.553
REMARK  6 active torsions:
REMARK  status: ('A' for Active; 'I' for Inactive)
REMARK    1  A    between atoms: C_1  and  C_2 
REMARK    2  A    between atoms: C_3  and  O_23 
REMARK    3  A    between atoms: C_10  and  C_11 
REMARK    4  A    between atoms: N_13  and  C_20 
REMARK    5  A    between atoms: O_23  and  C_24 
REMARK    6  A    between atoms: C_24  and  C_26 
ROOT
ATOM      1  C   LIG d   1       5.816  -7.933  -6.311  0.00  0.00     0.035 A 
ATOM      2  C   LIG d   1       6.806  -8.760  -5.805  0.00  0.00     0.139 A 
ATOM      3  C   LIG d   1       7.866  -8.230  -5.075  0.00  0.00    -0.018 A 
ATOM      4  C   LIG d   1       7.940  -6.884  -4.848  0.00  0.00    -0.044 A 
ATOM      5  C   LIG d   1       6.951  -6.040  -5.350  0.00  0.00     0.068 A 
ATOM      6  C   LIG d   1       5.877  -6.565  -6.088  0.00  0.00     0.146 A 
ATOM      7  O   LIG d   1       5.066  -5.549  -6.456  0.00  0.00    -0.451 OA
ATOM      8  C   LIG d   1       5.529  -4.358  -6.009  0.00  0.00     0.176 A 
ATOM      9  C   LIG d   1       4.939  -3.147  -6.213  0.00  0.00    -0.006 C 
ATOM     10  C   LIG d   1       6.735  -4.583  -5.295  0.00  0.00     0.232 A 
ATOM     11  O   LIG d   1       7.441  -3.749  -4.752  0.00  0.00    -0.283 OA
ATOM     12  H   LIG d   1       8.633  -8.884  -4.687  0.00  0.00     0.066 H 
ATOM     13  H   LIG d   1       8.763  -6.476  -4.281  0.00  0.00     0.063 H 
ATOM     14  H   LIG d   1       4.090  -3.065  -6.877  0.00  0.00     0.066 H 
ENDROOT
BRANCH   9  15
ATOM     15  C   LIG d   1       5.453  -1.959  -5.535  0.00  0.00     0.004 A 
ATOM     16  C   LIG d   1       5.034  -1.439  -4.219  0.00  0.00     0.007 A 
ATOM     17  C   LIG d   1       5.806  -0.287  -3.995  0.00  0.00     0.049 A 
ATOM     18  C   LIG d   1       4.106  -1.854  -3.269  0.00  0.00    -0.052 A 
ATOM     19  N   LIG d   1       6.631  -0.116  -5.088  0.00  0.00    -0.349 N 
ATOM     20  C   LIG d   1       5.631   0.431  -2.817  0.00  0.00    -0.038 A 
ATOM     21  C   LIG d   1       6.422  -1.097  -6.001  0.00  0.00     0.013 A 
ATOM     22  H   LIG d   1       6.938  -1.190  -6.946  0.00  0.00     0.082 H 
ATOM     23  C   LIG d   1       4.709   0.009  -1.884  0.00  0.00    -0.060 A 
ATOM     24  H   LIG d   1       6.219   1.319  -2.633  0.00  0.00     0.064 H 
ATOM     25  C   LIG d   1       3.948  -1.128  -2.108  0.00  0.00    -0.061 A 
ATOM     26  H   LIG d   1       4.577   0.570  -0.971  0.00  0.00     0.062 H 
ATOM     27  H   LIG d   1       3.228  -1.448  -1.369  0.00  0.00     0.062 H 
ATOM     28  H   LIG d   1       3.511  -2.739  -3.442  0.00  0.00     0.062 H 
BRANCH  19  29
ATOM     29  C   LIG d   1       7.596   0.976  -5.242  0.00  0.00     0.012 C 
ATOM     30  H   LIG d   1       8.244   1.015  -4.367  0.00  0.00     0.046 H 
ATOM     31  H   LIG d   1       7.061   1.921  -5.343  0.00  0.00     0.046 H 
ATOM     32  H   LIG d   1       8.200   0.804  -6.133  0.00  0.00     0.046 H 
ENDBRANCH  19  29
ENDBRANCH   9  15
BRANCH   1  33
ATOM     33  C   LIG d   1       4.674  -8.520  -7.099  0.00  0.00    -0.033 C 
ATOM     34  H   LIG d   1       4.223  -7.744  -7.719  0.00  0.00     0.028 H 
ATOM     35  H   LIG d   1       5.045  -9.323  -7.735  0.00  0.00     0.028 H 
ATOM     36  H   LIG d   1       3.925  -8.917  -6.413  0.00  0.00     0.028 H 
ENDBRANCH   1  33
BRANCH   2  37
ATOM     37  O   LIG d   1       6.743 -10.098  -6.025  0.00  0.00    -0.420 OA
BRANCH  37  38
ATOM     38  C   LIG d   1       6.451 -10.899  -4.978  0.00  0.00     0.380 C 
ATOM     39  O   LIG d   1       7.295 -11.656  -4.538  0.00  0.00    -0.241 OA
BRANCH  38  40
ATOM     40  C   LIG d   1       5.119 -10.855  -4.372  0.00  0.00     0.212 A 
ATOM     41  O   LIG d   1       4.015 -11.477  -4.837  0.00  0.00    -0.456 OA
ATOM     42  C   LIG d   1       2.982 -11.214  -4.025  0.00  0.00     0.093 A 
ATOM     43  C   LIG d   1       3.408 -10.408  -3.027  0.00  0.00    -0.023 A 
ATOM     44  H   LIG d   1       1.975 -11.583  -4.151  0.00  0.00     0.103 H 
ATOM     45  C   LIG d   1       4.774 -10.172  -3.240  0.00  0.00    -0.009 A 
ATOM     46  H   LIG d   1       2.808 -10.019  -2.218  0.00  0.00     0.065 H 
ATOM     47  H   LIG d   1       5.426  -9.568  -2.627  0.00  0.00     0.066 H 
ENDBRANCH  38  40
ENDBRANCH  37  38
ENDBRANCH   2  37
TORSDOF 6
ENDMDL
MODEL 8
REMARK VINA RESULT:      -6.3      3.014      8.419
REMARK  6 active torsions:
REMARK  status: ('A' for Active; 'I' for Inactive)
REMARK    1  A    between atoms: C_1  and  C_2 
REMARK    2  A    between atoms: C_3  and  O_23 
REMARK    3  A    between atoms: C_10  and  C_11 
REMARK    4  A    between atoms: N_13  and  C_20 
REMARK    5  A    between atoms: O_23  and  C_24 
REMARK    6  A    between atoms: C_24  and  C_26 
ROOT
ATOM      1  C   LIG d   1       6.723  -3.279  -5.386  0.00  0.00     0.035 A 
ATOM      2  C   LIG d   1       5.825  -2.367  -5.918  0.00  0.00     0.139 A 
ATOM      3  C   LIG d   1       4.707  -2.804  -6.623  0.00  0.00    -0.018 A 
ATOM      4  C   LIG d   1       4.482  -4.141  -6.796  0.00  0.00    -0.044 A 
ATOM      5  C   LIG d   1       5.376  -5.070  -6.266  0.00  0.00     0.068 A 
ATOM      6  C   LIG d   1       6.508  -4.640  -5.553  0.00  0.00     0.146 A 
ATOM      7  O   LIG d   1       7.204  -5.724  -5.148  0.00  0.00    -0.451 OA
ATOM      8  C   LIG d   1       6.608  -6.873  -5.547  0.00  0.00     0.176 A 
ATOM      9  C   LIG d   1       7.062  -8.133  -5.298  0.00  0.00    -0.006 C 
ATOM     10  C   LIG d   1       5.434  -6.543  -6.273  0.00  0.00     0.232 A 
ATOM     11  O   LIG d   1       4.642  -7.313  -6.792  0.00  0.00    -0.283 OA
ATOM     12  H   LIG d   1       4.015  -2.084  -7.034  0.00  0.00     0.066 H 
ATOM     13  H   LIG d   1       3.613  -4.477  -7.343  0.00  0.00     0.063 H 
ATOM     14  H   LIG d   1       8.032  -8.278  -4.846  0.00  0.00     0.066 H 
ENDROOT
BRANCH   9  15
ATOM     15  C   LIG d   1       6.237  -9.289  -5.642  0.00  0.00     0.004 A 
ATOM     16  C   LIG d   1       5.098  -9.825  -4.871  0.00  0.00     0.007 A 
ATOM     17  C   LIG d   1       4.628 -10.933  -5.596  0.00  0.00     0.049 A 
ATOM     18  C   LIG d   1       4.480  -9.456  -3.680  0.00  0.00    -0.052 A 
ATOM     19  N   LIG d   1       5.417 -11.064  -6.720  0.00  0.00    -0.349 N 
ATOM     20  C   LIG d   1       3.543 -11.654  -5.109  0.00  0.00    -0.038 A 
ATOM     21  C   LIG d   1       6.371 -10.100  -6.748  0.00  0.00     0.013 A 
ATOM     22  H   LIG d   1       7.118  -9.984  -7.520  0.00  0.00     0.082 H 
ATOM     23  C   LIG d   1       2.941 -11.278  -3.928  0.00  0.00    -0.060 A 
ATOM     24  H   LIG d   1       3.172 -12.508  -5.657  0.00  0.00     0.064 H 
ATOM     25  C   LIG d   1       3.406 -10.184  -3.214  0.00  0.00    -0.061 A 
ATOM     26  H   LIG d   1       2.098 -11.841  -3.554  0.00  0.00     0.062 H 
ATOM     27  H   LIG d   1       2.925  -9.900  -2.290  0.00  0.00     0.062 H 
ATOM     28  H   LIG d   1       4.842  -8.605  -3.122  0.00  0.00     0.062 H 
BRANCH  19  29
ATOM     29  C   LIG d   1       5.251 -12.104  -7.739  0.00  0.00     0.012 C 
ATOM     30  H   LIG d   1       5.380 -13.084  -7.282  0.00  0.00     0.046 H 
ATOM     31  H   LIG d   1       5.997 -11.966  -8.523  0.00  0.00     0.046 H 
ATOM     32  H   LIG d   1       4.254 -12.033  -8.172  0.00  0.00     0.046 H 
ENDBRANCH  19  29
ENDBRANCH   9  15
BRANCH   1  33
ATOM     33  C   LIG d   1       7.929  -2.793  -4.625  0.00  0.00    -0.033 C 
ATOM     34  H   LIG d   1       8.829  -3.245  -5.043  0.00  0.00     0.028 H 
ATOM     35  H   LIG d   1       7.997  -1.709  -4.705  0.00  0.00     0.028 H 
ATOM     36  H   LIG d   1       7.835  -3.075  -3.576  0.00  0.00     0.028 H 
ENDBRANCH   1  33
BRANCH   2  37
ATOM     37  O   LIG d   1       6.040  -1.037  -5.752  0.00  0.00    -0.420 OA
BRANCH  37  38
ATOM     38  C   LIG d   1       5.032  -0.290  -5.255  0.00  0.00     0.380 C 
ATOM     39  O   LIG d   1       4.306   0.332  -6.007  0.00  0.00    -0.241 OA
BRANCH  38  40
ATOM     40  C   LIG d   1       4.811  -0.230  -3.808  0.00  0.00     0.212 A 
ATOM     41  O   LIG d   1       4.461  -1.264  -3.016  0.00  0.00    -0.456 OA
ATOM     42  C   LIG d   1       4.352  -0.836  -1.750  0.00  0.00     0.093 A 
ATOM     43  C   LIG d   1       4.623   0.487  -1.714  0.00  0.00    -0.023 A 
ATOM     44  H   LIG d   1       4.087  -1.449  -0.901  0.00  0.00     0.103 H 
ATOM     45  C   LIG d   1       4.918   0.886  -3.026  0.00  0.00    -0.009 A 
ATOM     46  H   LIG d   1       4.614   1.119  -0.838  0.00  0.00     0.065 H 
ATOM     47  H   LIG d   1       5.179   1.881  -3.353  0.00  0.00     0.066 H 
ENDBRANCH  38  40
ENDBRANCH  37  38
ENDBRANCH   2  37
TORSDOF 6
ENDMDL
MODEL 9
REMARK VINA RESULT:      -6.3      6.888     11.880
REMARK  6 active torsions:
REMARK  status: ('A' for Active; 'I' for Inactive)
REMARK    1  A    between atoms: C_1  and  C_2 
REMARK    2  A    between atoms: C_3  and  O_23 
REMARK    3  A    between atoms: C_10  and  C_11 
REMARK    4  A    between atoms: N_13  and  C_20 
REMARK    5  A    between atoms: O_23  and  C_24 
REMARK    6  A    between atoms: C_24  and  C_26 
ROOT
ATOM      1  C   LIG d   1      10.271   3.360  -7.184  0.00  0.00     0.035 A 
ATOM      2  C   LIG d   1       9.954   3.876  -8.431  0.00  0.00     0.139 A 
ATOM      3  C   LIG d   1       8.805   3.460  -9.097  0.00  0.00    -0.018 A 
ATOM      4  C   LIG d   1       7.975   2.537  -8.526  0.00  0.00    -0.044 A 
ATOM      5  C   LIG d   1       8.281   2.009  -7.273  0.00  0.00     0.068 A 
ATOM      6  C   LIG d   1       9.438   2.422  -6.591  0.00  0.00     0.146 A 
ATOM      7  O   LIG d   1       9.504   1.768  -5.411  0.00  0.00    -0.451 OA
ATOM      8  C   LIG d   1       8.452   0.930  -5.250  0.00  0.00     0.176 A 
ATOM      9  C   LIG d   1       8.230   0.132  -4.168  0.00  0.00    -0.006 C 
ATOM     10  C   LIG d   1       7.624   1.020  -6.399  0.00  0.00     0.232 A 
ATOM     11  O   LIG d   1       6.590   0.410  -6.616  0.00  0.00    -0.283 OA
ATOM     12  H   LIG d   1       8.569   3.869 -10.068  0.00  0.00     0.066 H 
ATOM     13  H   LIG d   1       7.084   2.216  -9.045  0.00  0.00     0.063 H 
ATOM     14  H   LIG d   1       8.984   0.040  -3.401  0.00  0.00     0.066 H 
ENDROOT
BRANCH   9  15
ATOM     15  C   LIG d   1       6.971  -0.601  -4.047  0.00  0.00     0.004 A 
ATOM     16  C   LIG d   1       5.719  -0.115  -3.434  0.00  0.00     0.007 A 
ATOM     17  C   LIG d   1       4.797  -1.168  -3.554  0.00  0.00     0.049 A 
ATOM     18  C   LIG d   1       5.342   1.079  -2.827  0.00  0.00    -0.052 A 
ATOM     19  N   LIG d   1       5.434  -2.214  -4.188  0.00  0.00    -0.349 N 
ATOM     20  C   LIG d   1       3.508  -1.002  -3.058  0.00  0.00    -0.038 A 
ATOM     21  C   LIG d   1       6.719  -1.886  -4.475  0.00  0.00     0.013 A 
ATOM     22  H   LIG d   1       7.432  -2.531  -4.968  0.00  0.00     0.082 H 
ATOM     23  C   LIG d   1       3.148   0.185  -2.459  0.00  0.00    -0.060 A 
ATOM     24  H   LIG d   1       2.789  -1.804  -3.144  0.00  0.00     0.064 H 
ATOM     25  C   LIG d   1       4.060   1.223  -2.343  0.00  0.00    -0.061 A 
ATOM     26  H   LIG d   1       2.146   0.309  -2.077  0.00  0.00     0.062 H 
ATOM     27  H   LIG d   1       3.765   2.148  -1.870  0.00  0.00     0.062 H 
ATOM     28  H   LIG d   1       6.052   1.888  -2.734  0.00  0.00     0.062 H 
BRANCH  19  29
ATOM     29  C   LIG d   1       4.811  -3.503  -4.504  0.00  0.00     0.012 C 
ATOM     30  H   LIG d   1       4.491  -3.986  -3.582  0.00  0.00     0.046 H 
ATOM     31  H   LIG d   1       5.533  -4.139  -5.017  0.00  0.00     0.046 H 
ATOM     32  H   LIG d   1       3.948  -3.340  -5.148  0.00  0.00     0.046 H 
ENDBRANCH  19  29
ENDBRANCH   9  15
BRANCH   1  33
ATOM     33  C   LIG d   1      11.519   3.818  -6.473  0.00  0.00    -0.033 C 
ATOM     34  H   LIG d   1      12.305   4.006  -7.205  0.00  0.00     0.028 H 
ATOM     35  H   LIG d   1      11.308   4.734  -5.923  0.00  0.00     0.028 H 
ATOM     36  H   LIG d   1      11.845   3.044  -5.779  0.00  0.00     0.028 H 
ENDBRANCH   1  33
BRANCH   2  37
ATOM     37  O   LIG d   1      10.772   4.794  -9.007  0.00  0.00    -0.420 OA
BRANCH  37  38
ATOM     38  C   LIG d   1      10.211   5.909  -9.519  0.00  0.00     0.380 C 
ATOM     39  O   LIG d   1      10.039   6.008 -10.719  0.00  0.00    -0.241 OA
BRANCH  38  40
ATOM     40  C   LIG d   1       9.807   7.000  -8.629  0.00  0.00     0.212 A 
ATOM     41  O   LIG d   1       9.359   8.213  -9.015  0.00  0.00    -0.456 OA
ATOM     42  C   LIG d   1       9.083   8.950  -7.930  0.00  0.00     0.093 A 
ATOM     43  C   LIG d   1       9.360   8.220  -6.827  0.00  0.00    -0.023 A 
ATOM     44  H   LIG d   1       8.706   9.962  -7.937  0.00  0.00     0.103 H 
ATOM     45  C   LIG d   1       9.824   6.971  -7.263  0.00  0.00    -0.009 A 
ATOM     46  H   LIG d   1       9.245   8.540  -5.802  0.00  0.00     0.065 H 
ATOM     47  H   LIG d   1      10.134   6.145  -6.640  0.00  0.00     0.066 H 
ENDBRANCH  38  40
ENDBRANCH  37  38
ENDBRANCH   2  37
TORSDOF 6
ENDMDL
MODEL 10
REMARK VINA RESULT:      -6.2      6.358     10.104
REMARK  6 active torsions:
REMARK  status: ('A' for Active; 'I' for Inactive)
REMARK    1  A    between atoms: C_1  and  C_2 
REMARK    2  A    between atoms: C_3  and  O_23 
REMARK    3  A    between atoms: C_10  and  C_11 
REMARK    4  A    between atoms: N_13  and  C_20 
REMARK    5  A    between atoms: O_23  and  C_24 
REMARK    6  A    between atoms: C_24  and  C_26 
ROOT
ATOM      1  C   LIG d   1       3.716  -1.422  -7.748  0.00  0.00     0.035 A 
ATOM      2  C   LIG d   1       3.656  -0.135  -7.237  0.00  0.00     0.139 A 
ATOM      3  C   LIG d   1       2.957   0.863  -7.911  0.00  0.00    -0.018 A 
ATOM      4  C   LIG d   1       2.320   0.581  -9.087  0.00  0.00    -0.044 A 
ATOM      5  C   LIG d   1       2.372  -0.709  -9.614  0.00  0.00     0.068 A 
ATOM      6  C   LIG d   1       3.075  -1.723  -8.941  0.00  0.00     0.146 A 
ATOM      7  O   LIG d   1       2.972  -2.867  -9.651  0.00  0.00    -0.451 OA
ATOM      8  C   LIG d   1       2.236  -2.689 -10.774  0.00  0.00     0.176 A 
ATOM      9  C   LIG d   1       1.949  -3.648 -11.698  0.00  0.00    -0.006 C 
ATOM     10  C   LIG d   1       1.818  -1.333 -10.828  0.00  0.00     0.232 A 
ATOM     11  O   LIG d   1       1.144  -0.800 -11.694  0.00  0.00    -0.283 OA
ATOM     12  H   LIG d   1       2.918   1.862  -7.503  0.00  0.00     0.066 H 
ATOM     13  H   LIG d   1       1.779   1.356  -9.608  0.00  0.00     0.063 H 
ATOM     14  H   LIG d   1       2.419  -4.618 -11.633  0.00  0.00     0.066 H 
ENDROOT
BRANCH   9  15
ATOM     15  C   LIG d   1       1.006  -3.364 -12.778  0.00  0.00     0.004 A 
ATOM     16  C   LIG d   1       1.320  -2.781 -14.097  0.00  0.00     0.007 A 
ATOM     17  C   LIG d   1       0.098  -2.700 -14.784  0.00  0.00     0.049 A 
ATOM     18  C   LIG d   1       2.494  -2.347 -14.706  0.00  0.00    -0.052 A 
ATOM     19  N   LIG d   1      -0.885  -3.194 -13.952  0.00  0.00    -0.349 N 
ATOM     20  C   LIG d   1       0.076  -2.182 -16.075  0.00  0.00    -0.038 A 
ATOM     21  C   LIG d   1      -0.355  -3.581 -12.765  0.00  0.00     0.013 A 
ATOM     22  H   LIG d   1      -0.912  -3.999 -11.939  0.00  0.00     0.082 H 
ATOM     23  C   LIG d   1       1.246  -1.757 -16.666  0.00  0.00    -0.060 A 
ATOM     24  H   LIG d   1      -0.858  -2.115 -16.615  0.00  0.00     0.064 H 
ATOM     25  C   LIG d   1       2.451  -1.837 -15.985  0.00  0.00    -0.061 A 
ATOM     26  H   LIG d   1       1.224  -1.356 -17.668  0.00  0.00     0.062 H 
ATOM     27  H   LIG d   1       3.361  -1.499 -16.459  0.00  0.00     0.062 H 
ATOM     28  H   LIG d   1       3.434  -2.408 -14.176  0.00  0.00     0.062 H 
BRANCH  19  29
ATOM     29  C   LIG d   1      -2.306  -3.283 -14.300  0.00  0.00     0.012 C 
ATOM     30  H   LIG d   1      -2.906  -3.241 -13.392  0.00  0.00     0.046 H 
ATOM     31  H   LIG d   1      -2.495  -4.224 -14.818  0.00  0.00     0.046 H 
ATOM     32  H   LIG d   1      -2.573  -2.451 -14.951  0.00  0.00     0.046 H 
ENDBRANCH  19  29
ENDBRANCH   9  15
BRANCH   1  33
ATOM     33  C   LIG d   1       4.477  -2.492  -7.008  0.00  0.00    -0.033 C 
ATOM     34  H   LIG d   1       5.465  -2.609  -7.453  0.00  0.00     0.028 H 
ATOM     35  H   LIG d   1       4.580  -2.207  -5.962  0.00  0.00     0.028 H 
ATOM     36  H   LIG d   1       3.934  -3.435  -7.076  0.00  0.00     0.028 H 
ENDBRANCH   1  33
BRANCH   2  37
ATOM     37  O   LIG d   1       4.285   0.156  -6.069  0.00  0.00    -0.420 OA
BRANCH  37  38
ATOM     38  C   LIG d   1       3.530   0.292  -4.959  0.00  0.00     0.380 C 
ATOM     39  O   LIG d   1       2.642   1.123  -4.926  0.00  0.00    -0.241 OA
BRANCH  38  40
ATOM     40  C   LIG d   1       3.778  -0.562  -3.796  0.00  0.00     0.212 A 
ATOM     41  O   LIG d   1       3.472  -1.872  -3.693  0.00  0.00    -0.456 OA
ATOM     42  C   LIG d   1       3.848  -2.323  -2.489  0.00  0.00     0.093 A 
ATOM     43  C   LIG d   1       4.396  -1.302  -1.793  0.00  0.00    -0.023 A 
ATOM     44  H   LIG d   1       3.728  -3.336  -2.132  0.00  0.00     0.103 H 
ATOM     45  C   LIG d   1       4.356  -0.170  -2.621  0.00  0.00    -0.009 A 
ATOM     46  H   LIG d   1       4.790  -1.349  -0.789  0.00  0.00     0.065 H 
ATOM     47  H   LIG d   1       4.713   0.819  -2.376  0.00  0.00     0.066 H 
ENDBRANCH  38  40
ENDBRANCH  37  38
ENDBRANCH   2  37
TORSDOF 6
ENDMDL
