MODEL 1
REMARK VINA RESULT:      -6.9      0.000      0.000
REMARK  7 active torsions:
REMARK  status: ('A' for Active; 'I' for Inactive)
REMARK    1  A    between atoms: C_1  and  C_2 
REMARK    2  A    between atoms: C_5  and  O_9 
REMARK    3  A    between atoms: C_7  and  C_8 
REMARK    4  A    between atoms: O_9  and  C_10 
REMARK    5  A    between atoms: C_10  and  C_12 
REMARK    6  A    between atoms: C_12  and  C_13 
REMARK    7  A    between atoms: C_12  and  C_17 
ROOT
ATOM      1  C   LIG d   1       3.501  -1.895  -8.561  0.00  0.00    -0.047 A 
ATOM      2  C   LIG d   1       4.302  -2.365  -7.536  0.00  0.00    -0.055 A 
ATOM      3  C   LIG d   1       4.437  -1.634  -6.372  0.00  0.00    -0.019 A 
ATOM      4  C   LIG d   1       3.778  -0.421  -6.235  0.00  0.00     0.132 A 
ATOM      5  C   LIG d   1       2.974   0.049  -7.264  0.00  0.00    -0.016 A 
ATOM      6  C   LIG d   1       2.838  -0.689  -8.424  0.00  0.00    -0.044 A 
ATOM      7  H   LIG d   1       4.819  -3.307  -7.645  0.00  0.00     0.062 H 
ATOM      8  H   LIG d   1       5.060  -2.004  -5.571  0.00  0.00     0.065 H 
ATOM      9  H   LIG d   1       2.456   0.990  -7.158  0.00  0.00     0.066 H 
ENDROOT
BRANCH   4  10
ATOM     10  O   LIG d   1       3.913   0.302  -5.092  0.00  0.00    -0.425 OA
BRANCH  10  11
ATOM     11  C   LIG d   1       3.059   0.029  -4.093  0.00  0.00     0.333 C 
ATOM     12  O   LIG d   1       1.888  -0.148  -4.331  0.00  0.00    -0.249 OA
BRANCH  11  13
ATOM     13  C   LIG d   1       3.561  -0.055  -2.675  0.00  0.00     0.245 C 
ATOM     14  H   LIG d   1       2.715  -0.035  -1.988  0.00  0.00     0.059 H 
BRANCH  13  15
ATOM     15  C   LIG d   1       4.341  -1.358  -2.487  0.00  0.00     0.411 C 
ATOM     16  F   LIG d   1       4.629  -1.538  -1.130  0.00  0.00    -0.170 F 
ATOM     17  F   LIG d   1       3.571  -2.432  -2.947  0.00  0.00    -0.170 F 
ATOM     18  F   LIG d   1       5.535  -1.295  -3.213  0.00  0.00    -0.170 F 
ENDBRANCH  13  15
BRANCH  13  19
ATOM     19  C   LIG d   1       4.480   1.135  -2.388  0.00  0.00     0.411 C 
ATOM     20  F   LIG d   1       3.909   2.301  -2.910  0.00  0.00    -0.170 F 
ATOM     21  F   LIG d   1       4.643   1.275  -1.006  0.00  0.00    -0.170 F 
ATOM     22  F   LIG d   1       5.726   0.917  -2.986  0.00  0.00    -0.170 F 
ENDBRANCH  13  19
ENDBRANCH  11  13
ENDBRANCH  10  11
ENDBRANCH   4  10
BRANCH   6  23
ATOM     23  C   LIG d   1       1.967  -0.178  -9.542  0.00  0.00    -0.039 C 
ATOM     24  H   LIG d   1       0.992  -0.666  -9.495  0.00  0.00     0.028 H 
ATOM     25  H   LIG d   1       1.840   0.898  -9.441  0.00  0.00     0.028 H 
ATOM     26  H   LIG d   1       2.437  -0.400 -10.500  0.00  0.00     0.028 H 
ENDBRANCH   6  23
BRANCH   1  27
ATOM     27  C   LIG d   1       3.352  -2.696  -9.827  0.00  0.00    -0.040 C 
ATOM     28  H   LIG d   1       2.298  -2.740 -10.107  0.00  0.00     0.028 H 
ATOM     29  H   LIG d   1       3.921  -2.223 -10.627  0.00  0.00     0.028 H 
ATOM     30  H   LIG d   1       3.726  -3.708  -9.664  0.00  0.00     0.028 H 
ENDBRANCH   1  27
TORSDOF 7
ENDMDL
MODEL 2
REMARK VINA RESULT:      -6.9      1.531      2.284
REMARK  7 active torsions:
REMARK  status: ('A' for Active; 'I' for Inactive)
REMARK    1  A    between atoms: C_1  and  C_2 
REMARK    2  A    between atoms: C_5  and  O_9 
REMARK    3  A    between atoms: C_7  and  C_8 
REMARK    4  A    between atoms: O_9  and  C_10 
REMARK    5  A    between atoms: C_10  and  C_12 
REMARK    6  A    between atoms: C_12  and  C_13 
REMARK    7  A    between atoms: C_12  and  C_17 
ROOT
ATOM      1  C   LIG d   1       2.763  -0.598  -9.028  0.00  0.00    -0.047 A 
ATOM      2  C   LIG d   1       3.216  -1.840  -8.622  0.00  0.00    -0.055 A 
ATOM      3  C   LIG d   1       4.072  -1.947  -7.543  0.00  0.00    -0.019 A 
ATOM      4  C   LIG d   1       4.488  -0.805  -6.874  0.00  0.00     0.132 A 
ATOM      5  C   LIG d   1       4.032   0.441  -7.283  0.00  0.00    -0.016 A 
ATOM      6  C   LIG d   1       3.171   0.541  -8.359  0.00  0.00    -0.044 A 
ATOM      7  H   LIG d   1       2.895  -2.728  -9.146  0.00  0.00     0.062 H 
ATOM      8  H   LIG d   1       4.422  -2.918  -7.225  0.00  0.00     0.065 H 
ATOM      9  H   LIG d   1       4.350   1.330  -6.760  0.00  0.00     0.066 H 
ENDROOT
BRANCH   4  10
ATOM     10  O   LIG d   1       5.334  -0.907  -5.815  0.00  0.00    -0.425 OA
BRANCH  10  11
ATOM     11  C   LIG d   1       4.900  -0.427  -4.639  0.00  0.00     0.333 C 
ATOM     12  O   LIG d   1       5.360   0.599  -4.199  0.00  0.00    -0.249 OA
BRANCH  11  13
ATOM     13  C   LIG d   1       3.840  -1.170  -3.868  0.00  0.00     0.245 C 
ATOM     14  H   LIG d   1       3.487  -2.016  -4.457  0.00  0.00     0.059 H 
BRANCH  13  15
ATOM     15  C   LIG d   1       4.431  -1.677  -2.550  0.00  0.00     0.411 C 
ATOM     16  F   LIG d   1       5.766  -2.046  -2.748  0.00  0.00    -0.170 F 
ATOM     17  F   LIG d   1       4.365  -0.662  -1.589  0.00  0.00    -0.170 F 
ATOM     18  F   LIG d   1       3.701  -2.785  -2.108  0.00  0.00    -0.170 F 
ENDBRANCH  13  15
BRANCH  13  19
ATOM     19  C   LIG d   1       2.670  -0.229  -3.573  0.00  0.00     0.411 C 
ATOM     20  F   LIG d   1       2.078   0.169  -4.776  0.00  0.00    -0.170 F 
ATOM     21  F   LIG d   1       1.724  -0.894  -2.786  0.00  0.00    -0.170 F 
ATOM     22  F   LIG d   1       3.138   0.898  -2.888  0.00  0.00    -0.170 F 
ENDBRANCH  13  19
ENDBRANCH  11  13
ENDBRANCH  10  11
ENDBRANCH   4  10
BRANCH   6  23
ATOM     23  C   LIG d   1       2.677   1.893  -8.803  0.00  0.00    -0.039 C 
ATOM     24  H   LIG d   1       1.645   1.810  -9.143  0.00  0.00     0.028 H 
ATOM     25  H   LIG d   1       2.730   2.591  -7.968  0.00  0.00     0.028 H 
ATOM     26  H   LIG d   1       3.301   2.257  -9.620  0.00  0.00     0.028 H 
ENDBRANCH   6  23
BRANCH   1  27
ATOM     27  C   LIG d   1       1.826  -0.485 -10.201  0.00  0.00    -0.040 C 
ATOM     28  H   LIG d   1       1.957  -1.348 -10.856  0.00  0.00     0.028 H 
ATOM     29  H   LIG d   1       0.796  -0.456  -9.843  0.00  0.00     0.028 H 
ATOM     30  H   LIG d   1       2.044   0.428 -10.755  0.00  0.00     0.028 H 
ENDBRANCH   1  27
TORSDOF 7
ENDMDL
MODEL 3
REMARK VINA RESULT:      -6.7      0.859      2.296
REMARK  7 active torsions:
REMARK  status: ('A' for Active; 'I' for Inactive)
REMARK    1  A    between atoms: C_1  and  C_2 
REMARK    2  A    between atoms: C_5  and  O_9 
REMARK    3  A    between atoms: C_7  and  C_8 
REMARK    4  A    between atoms: O_9  and  C_10 
REMARK    5  A    between atoms: C_10  and  C_12 
REMARK    6  A    between atoms: C_12  and  C_13 
REMARK    7  A    between atoms: C_12  and  C_17 
ROOT
ATOM      1  C   LIG d   1       3.155  -2.265  -8.913  0.00  0.00    -0.047 A 
ATOM      2  C   LIG d   1       4.067  -2.696  -7.967  0.00  0.00    -0.055 A 
ATOM      3  C   LIG d   1       4.430  -1.865  -6.926  0.00  0.00    -0.019 A 
ATOM      4  C   LIG d   1       3.887  -0.592  -6.834  0.00  0.00     0.132 A 
ATOM      5  C   LIG d   1       2.971  -0.161  -7.784  0.00  0.00    -0.016 A 
ATOM      6  C   LIG d   1       2.607  -0.999  -8.821  0.00  0.00    -0.044 A 
ATOM      7  H   LIG d   1       4.493  -3.686  -8.042  0.00  0.00     0.062 H 
ATOM      8  H   LIG d   1       5.140  -2.204  -6.186  0.00  0.00     0.065 H 
ATOM      9  H   LIG d   1       2.542   0.828  -7.712  0.00  0.00     0.066 H 
ENDROOT
BRANCH   4  10
ATOM     10  O   LIG d   1       4.246   0.230  -5.813  0.00  0.00    -0.425 OA
BRANCH  10  11
ATOM     11  C   LIG d   1       3.577   0.093  -4.656  0.00  0.00     0.333 C 
ATOM     12  O   LIG d   1       2.373   0.181  -4.641  0.00  0.00    -0.249 OA
BRANCH  11  13
ATOM     13  C   LIG d   1       4.330  -0.168  -3.378  0.00  0.00     0.245 C 
ATOM     14  H   LIG d   1       5.393  -0.277  -3.597  0.00  0.00     0.059 H 
BRANCH  13  15
ATOM     15  C   LIG d   1       4.125   1.004  -2.416  0.00  0.00     0.411 C 
ATOM     16  F   LIG d   1       2.816   0.977  -1.920  0.00  0.00    -0.170 F 
ATOM     17  F   LIG d   1       5.028   0.899  -1.353  0.00  0.00    -0.170 F 
ATOM     18  F   LIG d   1       4.341   2.208  -3.095  0.00  0.00    -0.170 F 
ENDBRANCH  13  15
BRANCH  13  19
ATOM     19  C   LIG d   1       3.808  -1.454  -2.733  0.00  0.00     0.411 C 
ATOM     20  F   LIG d   1       4.435  -1.643  -1.497  0.00  0.00    -0.170 F 
ATOM     21  F   LIG d   1       2.426  -1.353  -2.544  0.00  0.00    -0.170 F 
ATOM     22  F   LIG d   1       4.086  -2.541  -3.569  0.00  0.00    -0.170 F 
ENDBRANCH  13  19
ENDBRANCH  11  13
ENDBRANCH  10  11
ENDBRANCH   4  10
BRANCH   6  23
ATOM     23  C   LIG d   1       1.613  -0.531  -9.852  0.00  0.00    -0.039 C 
ATOM     24  H   LIG d   1       0.853   0.086  -9.372  0.00  0.00     0.028 H 
ATOM     25  H   LIG d   1       2.128   0.053 -10.614  0.00  0.00     0.028 H 
ATOM     26  H   LIG d   1       1.138  -1.395 -10.316  0.00  0.00     0.028 H 
ENDBRANCH   6  23
BRANCH   1  27
ATOM     27  C   LIG d   1       2.757  -3.175 -10.045  0.00  0.00    -0.040 C 
ATOM     28  H   LIG d   1       1.670  -3.259 -10.079  0.00  0.00     0.028 H 
ATOM     29  H   LIG d   1       3.119  -2.764 -10.987  0.00  0.00     0.028 H 
ATOM     30  H   LIG d   1       3.193  -4.163  -9.887  0.00  0.00     0.028 H 
ENDBRANCH   1  27
TORSDOF 7
ENDMDL
MODEL 4
REMARK VINA RESULT:      -6.6      1.031      2.779
REMARK  7 active torsions:
REMARK  status: ('A' for Active; 'I' for Inactive)
REMARK    1  A    between atoms: C_1  and  C_2 
REMARK    2  A    between atoms: C_5  and  O_9 
REMARK    3  A    between atoms: C_7  and  C_8 
REMARK    4  A    between atoms: O_9  and  C_10 
REMARK    5  A    between atoms: C_10  and  C_12 
REMARK    6  A    between atoms: C_12  and  C_13 
REMARK    7  A    between atoms: C_12  and  C_17 
ROOT
ATOM      1  C   LIG d   1       2.386  -0.534  -9.503  0.00  0.00    -0.047 A 
ATOM      2  C   LIG d   1       2.450   0.761  -9.019  0.00  0.00    -0.055 A 
ATOM      3  C   LIG d   1       3.112   1.026  -7.837  0.00  0.00    -0.019 A 
ATOM      4  C   LIG d   1       3.704  -0.008  -7.127  0.00  0.00     0.132 A 
ATOM      5  C   LIG d   1       3.639  -1.307  -7.614  0.00  0.00    -0.016 A 
ATOM      6  C   LIG d   1       2.980  -1.566  -8.800  0.00  0.00    -0.044 A 
ATOM      7  H   LIG d   1       1.985   1.565  -9.570  0.00  0.00     0.062 H 
ATOM      8  H   LIG d   1       3.165   2.038  -7.463  0.00  0.00     0.065 H 
ATOM      9  H   LIG d   1       4.104  -2.113  -7.066  0.00  0.00     0.066 H 
ENDROOT
BRANCH   4  10
ATOM     10  O   LIG d   1       4.353   0.250  -5.961  0.00  0.00    -0.425 OA
BRANCH  10  11
ATOM     11  C   LIG d   1       3.647   0.110  -4.827  0.00  0.00     0.333 C 
ATOM     12  O   LIG d   1       2.444   0.205  -4.850  0.00  0.00    -0.249 OA
BRANCH  11  13
ATOM     13  C   LIG d   1       4.358  -0.163  -3.527  0.00  0.00     0.245 C 
ATOM     14  H   LIG d   1       5.431  -0.231  -3.706  0.00  0.00     0.059 H 
BRANCH  13  15
ATOM     15  C   LIG d   1       4.075   0.975  -2.543  0.00  0.00     0.411 C 
ATOM     16  F   LIG d   1       4.149   2.201  -3.213  0.00  0.00    -0.170 F 
ATOM     17  F   LIG d   1       2.794   0.816  -2.003  0.00  0.00    -0.170 F 
ATOM     18  F   LIG d   1       5.022   0.947  -1.514  0.00  0.00    -0.170 F 
ENDBRANCH  13  15
BRANCH  13  19
ATOM     19  C   LIG d   1       3.854  -1.483  -2.939  0.00  0.00     0.411 C 
ATOM     20  F   LIG d   1       4.534  -1.751  -1.747  0.00  0.00    -0.170 F 
ATOM     21  F   LIG d   1       2.482  -1.385  -2.681  0.00  0.00    -0.170 F 
ATOM     22  F   LIG d   1       4.084  -2.518  -3.851  0.00  0.00    -0.170 F 
ENDBRANCH  13  19
ENDBRANCH  11  13
ENDBRANCH  10  11
ENDBRANCH   4  10
BRANCH   6  23
ATOM     23  C   LIG d   1       2.909  -2.975  -9.328  0.00  0.00    -0.039 C 
ATOM     24  H   LIG d   1       2.215  -3.557  -8.720  0.00  0.00     0.028 H 
ATOM     25  H   LIG d   1       2.562  -2.959 -10.361  0.00  0.00     0.028 H 
ATOM     26  H   LIG d   1       3.898  -3.429  -9.284  0.00  0.00     0.028 H 
ENDBRANCH   6  23
BRANCH   1  27
ATOM     27  C   LIG d   1       1.667  -0.820 -10.795  0.00  0.00    -0.040 C 
ATOM     28  H   LIG d   1       0.590  -0.777 -10.629  0.00  0.00     0.028 H 
ATOM     29  H   LIG d   1       1.949  -0.076 -11.541  0.00  0.00     0.028 H 
ATOM     30  H   LIG d   1       1.940  -1.814 -11.150  0.00  0.00     0.028 H 
ENDBRANCH   1  27
TORSDOF 7
ENDMDL
MODEL 5
REMARK VINA RESULT:      -6.5      1.633      3.015
REMARK  7 active torsions:
REMARK  status: ('A' for Active; 'I' for Inactive)
REMARK    1  A    between atoms: C_1  and  C_2 
REMARK    2  A    between atoms: C_5  and  O_9 
REMARK    3  A    between atoms: C_7  and  C_8 
REMARK    4  A    between atoms: O_9  and  C_10 
REMARK    5  A    between atoms: C_10  and  C_12 
REMARK    6  A    between atoms: C_12  and  C_13 
REMARK    7  A    between atoms: C_12  and  C_17 
ROOT
ATOM      1  C   LIG d   1       3.863   0.846  -9.360  0.00  0.00    -0.047 A 
ATOM      2  C   LIG d   1       2.676   0.400  -8.807  0.00  0.00    -0.055 A 
ATOM      3  C   LIG d   1       2.669  -0.162  -7.546  0.00  0.00    -0.019 A 
ATOM      4  C   LIG d   1       3.855  -0.289  -6.837  0.00  0.00     0.132 A 
ATOM      5  C   LIG d   1       5.044   0.159  -7.393  0.00  0.00    -0.016 A 
ATOM      6  C   LIG d   1       5.045   0.726  -8.654  0.00  0.00    -0.044 A 
ATOM      7  H   LIG d   1       1.755   0.496  -9.361  0.00  0.00     0.062 H 
ATOM      8  H   LIG d   1       1.741  -0.507  -7.114  0.00  0.00     0.065 H 
ATOM      9  H   LIG d   1       5.968   0.066  -6.842  0.00  0.00     0.066 H 
ENDROOT
BRANCH   4  10
ATOM     10  O   LIG d   1       3.851  -0.846  -5.597  0.00  0.00    -0.425 OA
BRANCH  10  11
ATOM     11  C   LIG d   1       3.727  -0.011  -4.553  0.00  0.00     0.333 C 
ATOM     12  O   LIG d   1       3.030   0.971  -4.646  0.00  0.00    -0.249 OA
BRANCH  11  13
ATOM     13  C   LIG d   1       4.458  -0.299  -3.268  0.00  0.00     0.245 C 
ATOM     14  H   LIG d   1       5.508  -0.499  -3.484  0.00  0.00     0.059 H 
BRANCH  13  15
ATOM     15  C   LIG d   1       4.350   0.912  -2.339  0.00  0.00     0.411 C 
ATOM     16  F   LIG d   1       3.001   1.216  -2.121  0.00  0.00    -0.170 F 
ATOM     17  F   LIG d   1       4.964   0.618  -1.116  0.00  0.00    -0.170 F 
ATOM     18  F   LIG d   1       4.986   2.010  -2.928  0.00  0.00    -0.170 F 
ENDBRANCH  13  15
BRANCH  13  19
ATOM     19  C   LIG d   1       3.833  -1.520  -2.589  0.00  0.00     0.411 C 
ATOM     20  F   LIG d   1       4.329  -1.633  -1.286  0.00  0.00    -0.170 F 
ATOM     21  F   LIG d   1       2.443  -1.369  -2.547  0.00  0.00    -0.170 F 
ATOM     22  F   LIG d   1       4.157  -2.672  -3.313  0.00  0.00    -0.170 F 
ENDBRANCH  13  19
ENDBRANCH  11  13
ENDBRANCH  10  11
ENDBRANCH   4  10
BRANCH   6  23
ATOM     23  C   LIG d   1       6.337   1.213  -9.258  0.00  0.00    -0.039 C 
ATOM     24  H   LIG d   1       6.287   1.123 -10.344  0.00  0.00     0.028 H 
ATOM     25  H   LIG d   1       6.495   2.255  -8.986  0.00  0.00     0.028 H 
ATOM     26  H   LIG d   1       7.163   0.610  -8.882  0.00  0.00     0.028 H 
ENDBRANCH   6  23
BRANCH   1  27
ATOM     27  C   LIG d   1       3.868   1.463 -10.734  0.00  0.00    -0.040 C 
ATOM     28  H   LIG d   1       3.633   2.526 -10.656  0.00  0.00     0.028 H 
ATOM     29  H   LIG d   1       4.853   1.341 -11.185  0.00  0.00     0.028 H 
ATOM     30  H   LIG d   1       3.119   0.971 -11.356  0.00  0.00     0.028 H 
ENDBRANCH   1  27
TORSDOF 7
ENDMDL
MODEL 6
REMARK VINA RESULT:      -6.5      1.172      2.094
REMARK  7 active torsions:
REMARK  status: ('A' for Active; 'I' for Inactive)
REMARK    1  A    between atoms: C_1  and  C_2 
REMARK    2  A    between atoms: C_5  and  O_9 
REMARK    3  A    between atoms: C_7  and  C_8 
REMARK    4  A    between atoms: O_9  and  C_10 
REMARK    5  A    between atoms: C_10  and  C_12 
REMARK    6  A    between atoms: C_12  and  C_13 
REMARK    7  A    between atoms: C_12  and  C_17 
ROOT
ATOM      1  C   LIG d   1       3.030   0.153  -9.550  0.00  0.00    -0.047 A 
ATOM      2  C   LIG d   1       2.950   1.426  -9.016  0.00  0.00    -0.055 A 
ATOM      3  C   LIG d   1       2.926   1.601  -7.646  0.00  0.00    -0.019 A 
ATOM      4  C   LIG d   1       2.972   0.498  -6.806  0.00  0.00     0.132 A 
ATOM      5  C   LIG d   1       3.053  -0.778  -7.344  0.00  0.00    -0.016 A 
ATOM      6  C   LIG d   1       3.081  -0.948  -8.715  0.00  0.00    -0.044 A 
ATOM      7  H   LIG d   1       2.910   2.283  -9.671  0.00  0.00     0.062 H 
ATOM      8  H   LIG d   1       2.867   2.596  -7.230  0.00  0.00     0.065 H 
ATOM      9  H   LIG d   1       3.094  -1.638  -6.692  0.00  0.00     0.066 H 
ENDROOT
BRANCH   4  10
ATOM     10  O   LIG d   1       2.944   0.668  -5.457  0.00  0.00    -0.425 OA
BRANCH  10  11
ATOM     11  C   LIG d   1       3.937   0.105  -4.751  0.00  0.00     0.333 C 
ATOM     12  O   LIG d   1       5.064   0.106  -5.186  0.00  0.00    -0.249 OA
BRANCH  11  13
ATOM     13  C   LIG d   1       3.646  -0.530  -3.416  0.00  0.00     0.245 C 
ATOM     14  H   LIG d   1       2.567  -0.625  -3.286  0.00  0.00     0.059 H 
BRANCH  13  15
ATOM     15  C   LIG d   1       4.291  -1.917  -3.360  0.00  0.00     0.411 C 
ATOM     16  F   LIG d   1       5.660  -1.784  -3.105  0.00  0.00    -0.170 F 
ATOM     17  F   LIG d   1       3.697  -2.666  -2.338  0.00  0.00    -0.170 F 
ATOM     18  F   LIG d   1       4.105  -2.568  -4.583  0.00  0.00    -0.170 F 
ENDBRANCH  13  15
BRANCH  13  19
ATOM     19  C   LIG d   1       4.220   0.345  -2.299  0.00  0.00     0.411 C 
ATOM     20  F   LIG d   1       3.317   1.371  -2.001  0.00  0.00    -0.170 F 
ATOM     21  F   LIG d   1       4.431  -0.436  -1.158  0.00  0.00    -0.170 F 
ATOM     22  F   LIG d   1       5.434   0.899  -2.718  0.00  0.00    -0.170 F 
ENDBRANCH  13  19
ENDBRANCH  11  13
ENDBRANCH  10  11
ENDBRANCH   4  10
BRANCH   6  23
ATOM     23  C   LIG d   1       3.169  -2.334  -9.299  0.00  0.00    -0.039 C 
ATOM     24  H   LIG d   1       4.208  -2.565  -9.533  0.00  0.00     0.028 H 
ATOM     25  H   LIG d   1       2.788  -3.056  -8.579  0.00  0.00     0.028 H 
ATOM     26  H   LIG d   1       2.573  -2.381 -10.211  0.00  0.00     0.028 H 
ENDBRANCH   6  23
BRANCH   1  27
ATOM     27  C   LIG d   1       3.061  -0.035 -11.044  0.00  0.00    -0.040 C 
ATOM     28  H   LIG d   1       3.732  -0.858 -11.293  0.00  0.00     0.028 H 
ATOM     29  H   LIG d   1       2.057  -0.264 -11.403  0.00  0.00     0.028 H 
ATOM     30  H   LIG d   1       3.417   0.880 -11.519  0.00  0.00     0.028 H 
ENDBRANCH   1  27
TORSDOF 7
ENDMDL
MODEL 7
REMARK VINA RESULT:      -6.5      1.565      2.412
REMARK  7 active torsions:
REMARK  status: ('A' for Active; 'I' for Inactive)
REMARK    1  A    between atoms: C_1  and  C_2 
REMARK    2  A    between atoms: C_5  and  O_9 
REMARK    3  A    between atoms: C_7  and  C_8 
REMARK    4  A    between atoms: O_9  and  C_10 
REMARK    5  A    between atoms: C_10  and  C_12 
REMARK    6  A    between atoms: C_12  and  C_13 
REMARK    7  A    between atoms: C_12  and  C_17 
ROOT
ATOM      1  C   LIG d   1       2.784  -0.737  -9.117  0.00  0.00    -0.047 A 
ATOM      2  C   LIG d   1       3.185  -2.030  -8.833  0.00  0.00    -0.055 A 
ATOM      3  C   LIG d   1       3.971  -2.283  -7.726  0.00  0.00    -0.019 A 
ATOM      4  C   LIG d   1       4.367  -1.238  -6.904  0.00  0.00     0.132 A 
ATOM      5  C   LIG d   1       3.963   0.059  -7.191  0.00  0.00    -0.016 A 
ATOM      6  C   LIG d   1       3.173   0.306  -8.297  0.00  0.00    -0.044 A 
ATOM      7  H   LIG d   1       2.879  -2.842  -9.476  0.00  0.00     0.062 H 
ATOM      8  H   LIG d   1       4.281  -3.293  -7.503  0.00  0.00     0.065 H 
ATOM      9  H   LIG d   1       4.266   0.873  -6.550  0.00  0.00     0.066 H 
ENDROOT
BRANCH   4  10
ATOM     10  O   LIG d   1       5.145  -1.484  -5.817  0.00  0.00    -0.425 OA
BRANCH  10  11
ATOM     11  C   LIG d   1       4.524  -1.562  -4.628  0.00  0.00     0.333 C 
ATOM     12  O   LIG d   1       4.075  -2.617  -4.250  0.00  0.00    -0.249 OA
BRANCH  11  13
ATOM     13  C   LIG d   1       4.388  -0.333  -3.768  0.00  0.00     0.245 C 
ATOM     14  H   LIG d   1       4.688   0.546  -4.339  0.00  0.00     0.059 H 
BRANCH  13  15
ATOM     15  C   LIG d   1       2.931  -0.181  -3.325  0.00  0.00     0.411 C 
ATOM     16  F   LIG d   1       2.498  -1.369  -2.726  0.00  0.00    -0.170 F 
ATOM     17  F   LIG d   1       2.831   0.868  -2.404  0.00  0.00    -0.170 F 
ATOM     18  F   LIG d   1       2.131   0.098  -4.438  0.00  0.00    -0.170 F 
ENDBRANCH  13  15
BRANCH  13  19
ATOM     19  C   LIG d   1       5.284  -0.471  -2.535  0.00  0.00     0.411 C 
ATOM     20  F   LIG d   1       4.637  -1.255  -1.575  0.00  0.00    -0.170 F 
ATOM     21  F   LIG d   1       6.488  -1.082  -2.901  0.00  0.00    -0.170 F 
ATOM     22  F   LIG d   1       5.546   0.796  -2.005  0.00  0.00    -0.170 F 
ENDBRANCH  13  19
ENDBRANCH  11  13
ENDBRANCH  10  11
ENDBRANCH   4  10
BRANCH   6  23
ATOM     23  C   LIG d   1       2.734   1.713  -8.608  0.00  0.00    -0.039 C 
ATOM     24  H   LIG d   1       1.833   1.947  -8.041  0.00  0.00     0.028 H 
ATOM     25  H   LIG d   1       3.526   2.409  -8.335  0.00  0.00     0.028 H 
ATOM     26  H   LIG d   1       2.525   1.801  -9.674  0.00  0.00     0.028 H 
ENDBRANCH   6  23
BRANCH   1  27
ATOM     27  C   LIG d   1       1.922  -0.464 -10.322  0.00  0.00    -0.040 C 
ATOM     28  H   LIG d   1       1.706   0.603 -10.380  0.00  0.00     0.028 H 
ATOM     29  H   LIG d   1       2.449  -0.777 -11.224  0.00  0.00     0.028 H 
ATOM     30  H   LIG d   1       0.988  -1.020 -10.235  0.00  0.00     0.028 H 
ENDBRANCH   1  27
TORSDOF 7
ENDMDL
MODEL 8
REMARK VINA RESULT:      -6.4      1.978      2.919
REMARK  7 active torsions:
REMARK  status: ('A' for Active; 'I' for Inactive)
REMARK    1  A    between atoms: C_1  and  C_2 
REMARK    2  A    between atoms: C_5  and  O_9 
REMARK    3  A    between atoms: C_7  and  C_8 
REMARK    4  A    between atoms: O_9  and  C_10 
REMARK    5  A    between atoms: C_10  and  C_12 
REMARK    6  A    between atoms: C_12  and  C_13 
REMARK    7  A    between atoms: C_12  and  C_17 
ROOT
ATOM      1  C   LIG d   1       3.856   1.191  -8.736  0.00  0.00    -0.047 A 
ATOM      2  C   LIG d   1       2.830   0.475  -8.148  0.00  0.00    -0.055 A 
ATOM      3  C   LIG d   1       3.108  -0.449  -7.159  0.00  0.00    -0.019 A 
ATOM      4  C   LIG d   1       4.420  -0.667  -6.764  0.00  0.00     0.132 A 
ATOM      5  C   LIG d   1       5.449   0.053  -7.355  0.00  0.00    -0.016 A 
ATOM      6  C   LIG d   1       5.164   0.980  -8.340  0.00  0.00    -0.044 A 
ATOM      7  H   LIG d   1       1.809   0.642  -8.459  0.00  0.00     0.062 H 
ATOM      8  H   LIG d   1       2.305  -1.005  -6.698  0.00  0.00     0.065 H 
ATOM      9  H   LIG d   1       6.470  -0.111  -7.046  0.00  0.00     0.066 H 
ENDROOT
BRANCH   4  10
ATOM     10  O   LIG d   1       4.696  -1.579  -5.795  0.00  0.00    -0.425 OA
BRANCH  10  11
ATOM     11  C   LIG d   1       4.221  -1.326  -4.565  0.00  0.00     0.333 C 
ATOM     12  O   LIG d   1       3.584  -2.168  -3.979  0.00  0.00    -0.249 OA
BRANCH  11  13
ATOM     13  C   LIG d   1       4.481   0.010  -3.918  0.00  0.00     0.245 C 
ATOM     14  H   LIG d   1       4.949   0.679  -4.640  0.00  0.00     0.059 H 
BRANCH  13  15
ATOM     15  C   LIG d   1       3.156   0.613  -3.446  0.00  0.00     0.411 C 
ATOM     16  F   LIG d   1       2.439  -0.343  -2.718  0.00  0.00    -0.170 F 
ATOM     17  F   LIG d   1       3.413   1.722  -2.632  0.00  0.00    -0.170 F 
ATOM     18  F   LIG d   1       2.405   1.014  -4.556  0.00  0.00    -0.170 F 
ENDBRANCH  13  15
BRANCH  13  19
ATOM     19  C   LIG d   1       5.411  -0.179  -2.717  0.00  0.00     0.411 C 
ATOM     20  F   LIG d   1       6.101   1.013  -2.471  0.00  0.00    -0.170 F 
ATOM     21  F   LIG d   1       4.655  -0.520  -1.591  0.00  0.00    -0.170 F 
ATOM     22  F   LIG d   1       6.327  -1.200  -2.992  0.00  0.00    -0.170 F 
ENDBRANCH  13  19
ENDBRANCH  11  13
ENDBRANCH  10  11
ENDBRANCH   4  10
BRANCH   6  23
ATOM     23  C   LIG d   1       6.281   1.761  -8.982  0.00  0.00    -0.039 C 
ATOM     24  H   LIG d   1       7.239   1.318  -8.708  0.00  0.00     0.028 H 
ATOM     25  H   LIG d   1       6.166   1.736 -10.065  0.00  0.00     0.028 H 
ATOM     26  H   LIG d   1       6.246   2.794  -8.637  0.00  0.00     0.028 H 
ENDBRANCH   6  23
BRANCH   1  27
ATOM     27  C   LIG d   1       3.550   2.201  -9.810  0.00  0.00    -0.040 C 
ATOM     28  H   LIG d   1       4.229   2.056 -10.651  0.00  0.00     0.028 H 
ATOM     29  H   LIG d   1       2.521   2.072 -10.148  0.00  0.00     0.028 H 
ATOM     30  H   LIG d   1       3.678   3.208  -9.410  0.00  0.00     0.028 H 
ENDBRANCH   1  27
TORSDOF 7
ENDMDL
MODEL 9
REMARK VINA RESULT:      -6.3      3.444      5.083
REMARK  7 active torsions:
REMARK  status: ('A' for Active; 'I' for Inactive)
REMARK    1  A    between atoms: C_1  and  C_2 
REMARK    2  A    between atoms: C_5  and  O_9 
REMARK    3  A    between atoms: C_7  and  C_8 
REMARK    4  A    between atoms: O_9  and  C_10 
REMARK    5  A    between atoms: C_10  and  C_12 
REMARK    6  A    between atoms: C_12  and  C_13 
REMARK    7  A    between atoms: C_12  and  C_17 
ROOT
ATOM      1  C   LIG d   1       8.934   2.824  -5.285  0.00  0.00    -0.047 A 
ATOM      2  C   LIG d   1       8.573   2.421  -4.013  0.00  0.00    -0.055 A 
ATOM      3  C   LIG d   1       7.786   1.299  -3.839  0.00  0.00    -0.019 A 
ATOM      4  C   LIG d   1       7.349   0.582  -4.943  0.00  0.00     0.132 A 
ATOM      5  C   LIG d   1       7.712   0.988  -6.220  0.00  0.00    -0.016 A 
ATOM      6  C   LIG d   1       8.504   2.108  -6.387  0.00  0.00    -0.044 A 
ATOM      7  H   LIG d   1       8.911   2.982  -3.154  0.00  0.00     0.062 H 
ATOM      8  H   LIG d   1       7.508   0.983  -2.845  0.00  0.00     0.065 H 
ATOM      9  H   LIG d   1       7.377   0.429  -7.081  0.00  0.00     0.066 H 
ENDROOT
BRANCH   4  10
ATOM     10  O   LIG d   1       6.570  -0.519  -4.775  0.00  0.00    -0.425 OA
BRANCH  10  11
ATOM     11  C   LIG d   1       5.312  -0.318  -4.352  0.00  0.00     0.333 C 
ATOM     12  O   LIG d   1       4.489   0.146  -5.105  0.00  0.00    -0.249 OA
BRANCH  11  13
ATOM     13  C   LIG d   1       4.928  -0.670  -2.939  0.00  0.00     0.245 C 
ATOM     14  H   LIG d   1       5.815  -0.979  -2.387  0.00  0.00     0.059 H 
BRANCH  13  15
ATOM     15  C   LIG d   1       4.305   0.553  -2.261  0.00  0.00     0.411 C 
ATOM     16  F   LIG d   1       4.682   0.582  -0.913  0.00  0.00    -0.170 F 
ATOM     17  F   LIG d   1       4.753   1.716  -2.895  0.00  0.00    -0.170 F 
ATOM     18  F   LIG d   1       2.911   0.478  -2.354  0.00  0.00    -0.170 F 
ENDBRANCH  13  15
BRANCH  13  19
ATOM     19  C   LIG d   1       3.912  -1.815  -2.956  0.00  0.00     0.411 C 
ATOM     20  F   LIG d   1       3.708  -2.276  -1.652  0.00  0.00    -0.170 F 
ATOM     21  F   LIG d   1       2.701  -1.356  -3.484  0.00  0.00    -0.170 F 
ATOM     22  F   LIG d   1       4.401  -2.859  -3.749  0.00  0.00    -0.170 F 
ENDBRANCH  13  19
ENDBRANCH  11  13
ENDBRANCH  10  11
ENDBRANCH   4  10
BRANCH   6  23
ATOM     23  C   LIG d   1       8.899   2.549  -7.773  0.00  0.00    -0.039 C 
ATOM     24  H   LIG d   1       9.859   3.064  -7.731  0.00  0.00     0.028 H 
ATOM     25  H   LIG d   1       8.981   1.678  -8.422  0.00  0.00     0.028 H 
ATOM     26  H   LIG d   1       8.141   3.226  -8.168  0.00  0.00     0.028 H 
ENDBRANCH   6  23
BRANCH   1  27
ATOM     27  C   LIG d   1       9.797   4.044  -5.472  0.00  0.00    -0.040 C 
ATOM     28  H   LIG d   1      10.831   3.738  -5.630  0.00  0.00     0.028 H 
ATOM     29  H   LIG d   1       9.448   4.608  -6.338  0.00  0.00     0.028 H 
ATOM     30  H   LIG d   1       9.736   4.672  -4.581  0.00  0.00     0.028 H 
ENDBRANCH   1  27
TORSDOF 7
ENDMDL
MODEL 10
REMARK VINA RESULT:      -6.3      1.624      2.328
REMARK  7 active torsions:
REMARK  status: ('A' for Active; 'I' for Inactive)
REMARK    1  A    between atoms: C_1  and  C_2 
REMARK    2  A    between atoms: C_5  and  O_9 
REMARK    3  A    between atoms: C_7  and  C_8 
REMARK    4  A    between atoms: O_9  and  C_10 
REMARK    5  A    between atoms: C_10  and  C_12 
REMARK    6  A    between atoms: C_12  and  C_13 
REMARK    7  A    between atoms: C_12  and  C_17 
ROOT
ATOM      1  C   LIG d   1       3.898   0.805  -9.374  0.00  0.00    -0.047 A 
ATOM      2  C   LIG d   1       2.735   0.353  -8.778  0.00  0.00    -0.055 A 
ATOM      3  C   LIG d   1       2.766  -0.145  -7.490  0.00  0.00    -0.019 A 
ATOM      4  C   LIG d   1       3.966  -0.202  -6.798  0.00  0.00     0.132 A 
ATOM      5  C   LIG d   1       5.133   0.252  -7.398  0.00  0.00    -0.016 A 
ATOM      6  C   LIG d   1       5.096   0.754  -8.684  0.00  0.00    -0.044 A 
ATOM      7  H   LIG d   1       1.802   0.395  -9.319  0.00  0.00     0.062 H 
ATOM      8  H   LIG d   1       1.856  -0.494  -7.025  0.00  0.00     0.065 H 
ATOM      9  H   LIG d   1       6.068   0.213  -6.859  0.00  0.00     0.066 H 
ENDROOT
BRANCH   4  10
ATOM     10  O   LIG d   1       4.000  -0.697  -5.532  0.00  0.00    -0.425 OA
BRANCH  10  11
ATOM     11  C   LIG d   1       3.383   0.022  -4.580  0.00  0.00     0.333 C 
ATOM     12  O   LIG d   1       2.827   1.055  -4.869  0.00  0.00    -0.249 OA
BRANCH  11  13
ATOM     13  C   LIG d   1       3.385  -0.460  -3.153  0.00  0.00     0.245 C 
ATOM     14  H   LIG d   1       2.358  -0.547  -2.797  0.00  0.00     0.059 H 
BRANCH  13  15
ATOM     15  C   LIG d   1       4.069  -1.827  -3.078  0.00  0.00     0.411 C 
ATOM     16  F   LIG d   1       3.618  -2.513  -1.945  0.00  0.00    -0.170 F 
ATOM     17  F   LIG d   1       3.759  -2.566  -4.225  0.00  0.00    -0.170 F 
ATOM     18  F   LIG d   1       5.454  -1.651  -2.996  0.00  0.00    -0.170 F 
ENDBRANCH  13  15
BRANCH  13  19
ATOM     19  C   LIG d   1       4.146   0.540  -2.279  0.00  0.00     0.411 C 
ATOM     20  F   LIG d   1       4.564  -0.093  -1.104  0.00  0.00    -0.170 F 
ATOM     21  F   LIG d   1       5.263   1.012  -2.976  0.00  0.00    -0.170 F 
ATOM     22  F   LIG d   1       3.307   1.612  -1.958  0.00  0.00    -0.170 F 
ENDBRANCH  13  19
ENDBRANCH  11  13
ENDBRANCH  10  11
ENDBRANCH   4  10
BRANCH   6  23
ATOM     23  C   LIG d   1       6.362   1.247  -9.336  0.00  0.00    -0.039 C 
ATOM     24  H   LIG d   1       7.202   1.099  -8.657  0.00  0.00     0.028 H 
ATOM     25  H   LIG d   1       6.537   0.692 -10.256  0.00  0.00     0.028 H 
ATOM     26  H   LIG d   1       6.263   2.308  -9.565  0.00  0.00     0.028 H 
ENDBRANCH   6  23
BRANCH   1  27
ATOM     27  C   LIG d   1       3.862   1.353 -10.777  0.00  0.00    -0.040 C 
ATOM     28  H   LIG d   1       3.392   0.624 -11.439  0.00  0.00     0.028 H 
ATOM     29  H   LIG d   1       3.287   2.279 -10.791  0.00  0.00     0.028 H 
ATOM     30  H   LIG d   1       4.879   1.550 -11.117  0.00  0.00     0.028 H 
ENDBRANCH   1  27
TORSDOF 7
ENDMDL
