MODEL 1
REMARK VINA RESULT:      -7.1      0.000      0.000
REMARK  11 active torsions:
REMARK  status: ('A' for Active; 'I' for Inactive)
REMARK    1  A    between atoms: C_1  and  C_2 
REMARK    2  A    between atoms: C_2  and  O_3 
REMARK    3  A    between atoms: O_3  and  C_4 
REMARK    4  A    between atoms: C_4  and  C_5 
REMARK    5  A    between atoms: C_5  and  C_6 
REMARK    6  A    between atoms: C_6  and  N_7 
REMARK    7  A    between atoms: C_27  and  C_29 
REMARK    8  A    between atoms: C_33  and  O_37 
REMARK    9  A    between atoms: C_34  and  O_35 
REMARK   10  A    between atoms: O_35  and  C_36 
REMARK   11  A    between atoms: O_37  and  C_38 
ROOT
ATOM      1  N   LIG d   1       5.859  -6.168  -6.576  0.00  0.00    -0.291 N 
ATOM      2  C   LIG d   1       7.145  -5.516  -6.389  0.00  0.00     0.091 A 
ATOM      3  C   LIG d   1       7.003  -4.047  -6.163  0.00  0.00     0.234 A 
ATOM      4  O   LIG d   1       8.013  -3.404  -5.971  0.00  0.00    -0.274 OA
ATOM      5  N   LIG d   1       5.840  -3.393  -6.160  0.00  0.00    -0.276 N 
ATOM      6  C   LIG d   1       4.561  -4.036  -6.460  0.00  0.00     0.107 A 
ATOM      7  H   LIG d   1       3.863  -3.825  -5.650  0.00  0.00     0.060 H 
ATOM      8  C   LIG d   1       4.697  -5.517  -6.607  0.00  0.00     0.237 A 
ATOM      9  O   LIG d   1       3.686  -6.167  -6.765  0.00  0.00    -0.274 OA
ATOM     10  C   LIG d   1       3.988  -3.439  -7.753  0.00  0.00     0.002 C 
ATOM     11  C   LIG d   1       4.120  -1.938  -7.698  0.00  0.00    -0.015 A 
ATOM     12  C   LIG d   1       3.425  -0.946  -8.493  0.00  0.00     0.003 A 
ATOM     13  C   LIG d   1       2.473  -1.045  -9.511  0.00  0.00    -0.052 A 
ATOM     14  C   LIG d   1       2.025   0.131 -10.059  0.00  0.00    -0.061 A 
ATOM     15  C   LIG d   1       2.488   1.365  -9.631  0.00  0.00    -0.060 A 
ATOM     16  C   LIG d   1       3.431   1.493  -8.626  0.00  0.00    -0.038 A 
ATOM     17  C   LIG d   1       3.903   0.314  -8.051  0.00  0.00     0.047 A 
ATOM     18  N   LIG d   1       4.813   0.079  -7.061  0.00  0.00    -0.356 N 
ATOM     19  H   LIG d   1       5.301   0.764  -6.577  0.00  0.00     0.166 HD
ATOM     20  C   LIG d   1       4.933  -1.270  -6.853  0.00  0.00     0.046 A 
ATOM     21  C   LIG d   1       5.829  -1.949  -5.841  0.00  0.00     0.096 C 
ATOM     22  H   LIG d   1       6.839  -1.546  -5.912  0.00  0.00     0.062 H 
ATOM     23  H   LIG d   1       7.757  -5.682  -7.276  0.00  0.00     0.056 H 
ATOM     24  H   LIG d   1       7.645  -5.961  -5.528  0.00  0.00     0.056 H 
ATOM     25  H   LIG d   1       4.545  -3.820  -8.609  0.00  0.00     0.034 H 
ATOM     26  H   LIG d   1       2.938  -3.715  -7.848  0.00  0.00     0.034 H 
ATOM     27  H   LIG d   1       2.106  -2.003  -9.852  0.00  0.00     0.062 H 
ATOM     28  H   LIG d   1       1.288   0.094 -10.848  0.00  0.00     0.062 H 
ATOM     29  H   LIG d   1       2.100   2.258 -10.098  0.00  0.00     0.062 H 
ATOM     30  H   LIG d   1       3.784   2.460  -8.301  0.00  0.00     0.064 H 
ENDROOT
BRANCH  21  31
ATOM     31  C   LIG d   1       5.287  -1.735  -4.452  0.00  0.00     0.024 A 
ATOM     32  C   LIG d   1       5.475  -0.519  -3.815  0.00  0.00     0.167 A 
ATOM     33  C   LIG d   1       4.974  -0.325  -2.531  0.00  0.00     0.162 A 
ATOM     34  C   LIG d   1       4.290  -1.349  -1.896  0.00  0.00    -0.016 A 
ATOM     35  C   LIG d   1       4.107  -2.559  -2.537  0.00  0.00    -0.058 A 
ATOM     36  H   LIG d   1       3.901  -1.200  -0.899  0.00  0.00     0.066 H 
ATOM     37  C   LIG d   1       4.599  -2.751  -3.813  0.00  0.00    -0.053 A 
ATOM     38  H   LIG d   1       3.573  -3.357  -2.040  0.00  0.00     0.062 H 
ATOM     39  H   LIG d   1       4.449  -3.697  -4.313  0.00  0.00     0.062 H 
BRANCH  32  40
ATOM     40  O   LIG d   1       6.148   0.482  -4.443  0.00  0.00    -0.491 OA
BRANCH  40  41
ATOM     41  C   LIG d   1       7.537   0.622  -4.135  0.00  0.00     0.079 C 
ATOM     42  H   LIG d   1       7.932  -0.333  -3.791  0.00  0.00     0.066 H 
ATOM     43  H   LIG d   1       8.077   0.940  -5.028  0.00  0.00     0.066 H 
ATOM     44  H   LIG d   1       7.661   1.370  -3.351  0.00  0.00     0.066 H 
ENDBRANCH  40  41
ENDBRANCH  32  40
BRANCH  33  45
ATOM     45  O   LIG d   1       5.156   0.867  -1.902  0.00  0.00    -0.491 OA
BRANCH  45  46
ATOM     46  C   LIG d   1       4.084   1.810  -1.976  0.00  0.00     0.079 C 
ATOM     47  H   LIG d   1       3.158   1.333  -1.654  0.00  0.00     0.066 H 
ATOM     48  H   LIG d   1       4.302   2.658  -1.325  0.00  0.00     0.066 H 
ATOM     49  H   LIG d   1       3.976   2.159  -3.003  0.00  0.00     0.066 H 
ENDBRANCH  45  46
ENDBRANCH  33  45
ENDBRANCH  21  31
BRANCH   1  50
ATOM     50  C   LIG d   1       5.839  -7.624  -6.739  0.00  0.00     0.017 C 
ATOM     51  H   LIG d   1       4.921  -7.920  -7.245  0.00  0.00     0.046 H 
ATOM     52  H   LIG d   1       6.699  -7.934  -7.334  0.00  0.00     0.046 H 
BRANCH  50  53
ATOM     53  C   LIG d   1       5.902  -8.292  -5.364  0.00  0.00    -0.014 C 
ATOM     54  H   LIG d   1       6.892  -8.723  -5.215  0.00  0.00     0.030 H 
ATOM     55  H   LIG d   1       5.711  -7.548  -4.590  0.00  0.00     0.030 H 
BRANCH  53  56
ATOM     56  C   LIG d   1       4.846  -9.395  -5.284  0.00  0.00     0.049 C 
ATOM     57  H   LIG d   1       4.299  -9.443  -6.225  0.00  0.00     0.056 H 
ATOM     58  H   LIG d   1       5.334 -10.352  -5.097  0.00  0.00     0.056 H 
BRANCH  56  59
ATOM     59  O   LIG d   1       3.938  -9.107  -4.218  0.00  0.00    -0.380 OA
BRANCH  59  60
ATOM     60  C   LIG d   1       3.680 -10.221  -3.360  0.00  0.00     0.045 C 
ATOM     61  H   LIG d   1       2.891  -9.960  -2.653  0.00  0.00     0.056 H 
ATOM     62  H   LIG d   1       3.364 -11.075  -3.958  0.00  0.00     0.056 H 
BRANCH  60  63
ATOM     63  C   LIG d   1       4.954 -10.578  -2.592  0.00  0.00    -0.042 C 
ATOM     64  H   LIG d   1       4.728 -10.653  -1.528  0.00  0.00     0.025 H 
ATOM     65  H   LIG d   1       5.338 -11.534  -2.950  0.00  0.00     0.025 H 
ATOM     66  H   LIG d   1       5.703  -9.803  -2.751  0.00  0.00     0.025 H 
ENDBRANCH  60  63
ENDBRANCH  59  60
ENDBRANCH  56  59
ENDBRANCH  53  56
ENDBRANCH  50  53
ENDBRANCH   1  50
TORSDOF 11
ENDMDL
MODEL 2
REMARK VINA RESULT:      -6.7      2.692      6.980
REMARK  11 active torsions:
REMARK  status: ('A' for Active; 'I' for Inactive)
REMARK    1  A    between atoms: C_1  and  C_2 
REMARK    2  A    between atoms: C_2  and  O_3 
REMARK    3  A    between atoms: O_3  and  C_4 
REMARK    4  A    between atoms: C_4  and  C_5 
REMARK    5  A    between atoms: C_5  and  C_6 
REMARK    6  A    between atoms: C_6  and  N_7 
REMARK    7  A    between atoms: C_27  and  C_29 
REMARK    8  A    between atoms: C_33  and  O_37 
REMARK    9  A    between atoms: C_34  and  O_35 
REMARK   10  A    between atoms: O_35  and  C_36 
REMARK   11  A    between atoms: O_37  and  C_38 
ROOT
ATOM      1  N   LIG d   1       4.506  -1.654 -10.174  0.00  0.00    -0.291 N 
ATOM      2  C   LIG d   1       5.958  -1.717 -10.124  0.00  0.00     0.091 A 
ATOM      3  C   LIG d   1       6.460  -2.003  -8.747  0.00  0.00     0.234 A 
ATOM      4  O   LIG d   1       7.659  -2.101  -8.592  0.00  0.00    -0.274 OA
ATOM      5  N   LIG d   1       5.680  -2.157  -7.675  0.00  0.00    -0.276 N 
ATOM      6  C   LIG d   1       4.229  -1.981  -7.712  0.00  0.00     0.107 A 
ATOM      7  H   LIG d   1       3.756  -2.870  -7.295  0.00  0.00     0.060 H 
ATOM      8  C   LIG d   1       3.723  -1.773  -9.103  0.00  0.00     0.237 A 
ATOM      9  O   LIG d   1       2.523  -1.708  -9.267  0.00  0.00    -0.274 OA
ATOM     10  C   LIG d   1       3.844  -0.779  -6.838  0.00  0.00     0.002 C 
ATOM     11  C   LIG d   1       4.593  -0.867  -5.532  0.00  0.00    -0.015 A 
ATOM     12  C   LIG d   1       4.306  -0.186  -4.286  0.00  0.00     0.003 A 
ATOM     13  C   LIG d   1       3.313   0.723  -3.909  0.00  0.00    -0.052 A 
ATOM     14  C   LIG d   1       3.348   1.180  -2.615  0.00  0.00    -0.061 A 
ATOM     15  C   LIG d   1       4.318   0.768  -1.716  0.00  0.00    -0.060 A 
ATOM     16  C   LIG d   1       5.314  -0.129  -2.062  0.00  0.00    -0.038 A 
ATOM     17  C   LIG d   1       5.302  -0.610  -3.370  0.00  0.00     0.047 A 
ATOM     18  N   LIG d   1       6.115  -1.485  -4.031  0.00  0.00    -0.356 N 
ATOM     19  H   LIG d   1       6.885  -1.933  -3.645  0.00  0.00     0.166 HD
ATOM     20  C   LIG d   1       5.681  -1.636  -5.322  0.00  0.00     0.046 A 
ATOM     21  C   LIG d   1       6.299  -2.519  -6.382  0.00  0.00     0.096 C 
ATOM     22  H   LIG d   1       7.375  -2.350  -6.425  0.00  0.00     0.062 H 
ATOM     23  H   LIG d   1       6.365  -0.763 -10.459  0.00  0.00     0.056 H 
ATOM     24  H   LIG d   1       6.302  -2.502 -10.797  0.00  0.00     0.056 H 
ATOM     25  H   LIG d   1       4.114   0.145  -7.349  0.00  0.00     0.034 H 
ATOM     26  H   LIG d   1       2.770  -0.793  -6.651  0.00  0.00     0.034 H 
ATOM     27  H   LIG d   1       2.552   1.051  -4.604  0.00  0.00     0.062 H 
ATOM     28  H   LIG d   1       2.596   1.883  -2.288  0.00  0.00     0.062 H 
ATOM     29  H   LIG d   1       4.297   1.161  -0.710  0.00  0.00     0.062 H 
ATOM     30  H   LIG d   1       6.065  -0.442  -1.352  0.00  0.00     0.064 H 
ENDROOT
BRANCH  21  31
ATOM     31  C   LIG d   1       6.021  -3.967  -6.069  0.00  0.00     0.024 A 
ATOM     32  C   LIG d   1       7.057  -4.886  -6.068  0.00  0.00     0.167 A 
ATOM     33  C   LIG d   1       6.797  -6.222  -5.778  0.00  0.00     0.162 A 
ATOM     34  C   LIG d   1       5.502  -6.627  -5.494  0.00  0.00    -0.016 A 
ATOM     35  C   LIG d   1       4.474  -5.704  -5.497  0.00  0.00    -0.058 A 
ATOM     36  H   LIG d   1       5.299  -7.664  -5.269  0.00  0.00     0.066 H 
ATOM     37  C   LIG d   1       4.732  -4.376  -5.779  0.00  0.00    -0.053 A 
ATOM     38  H   LIG d   1       3.465  -6.021  -5.275  0.00  0.00     0.062 H 
ATOM     39  H   LIG d   1       3.926  -3.657  -5.775  0.00  0.00     0.062 H 
BRANCH  32  40
ATOM     40  O   LIG d   1       8.325  -4.484  -6.349  0.00  0.00    -0.491 OA
BRANCH  40  41
ATOM     41  C   LIG d   1       9.144  -4.099  -5.242  0.00  0.00     0.079 C 
ATOM     42  H   LIG d   1       9.489  -4.989  -4.719  0.00  0.00     0.066 H 
ATOM     43  H   LIG d   1      10.002  -3.533  -5.605  0.00  0.00     0.066 H 
ATOM     44  H   LIG d   1       8.562  -3.478  -4.560  0.00  0.00     0.066 H 
ENDBRANCH  40  41
ENDBRANCH  32  40
BRANCH  33  45
ATOM     45  O   LIG d   1       7.811  -7.129  -5.777  0.00  0.00    -0.491 OA
BRANCH  45  46
ATOM     46  C   LIG d   1       8.177  -7.689  -4.514  0.00  0.00     0.079 C 
ATOM     47  H   LIG d   1       9.181  -7.359  -4.247  0.00  0.00     0.066 H 
ATOM     48  H   LIG d   1       7.471  -7.358  -3.751  0.00  0.00     0.066 H 
ATOM     49  H   LIG d   1       8.157  -8.777  -4.579  0.00  0.00     0.066 H 
ENDBRANCH  45  46
ENDBRANCH  33  45
ENDBRANCH  21  31
BRANCH   1  50
ATOM     50  C   LIG d   1       3.868  -1.449 -11.477  0.00  0.00     0.017 C 
ATOM     51  H   LIG d   1       4.160  -2.251 -12.154  0.00  0.00     0.046 H 
ATOM     52  H   LIG d   1       2.784  -1.451 -11.355  0.00  0.00     0.046 H 
BRANCH  50  53
ATOM     53  C   LIG d   1       4.313  -0.104 -12.055  0.00  0.00    -0.014 C 
ATOM     54  H   LIG d   1       5.401  -0.061 -12.080  0.00  0.00     0.030 H 
ATOM     55  H   LIG d   1       3.923   0.003 -13.068  0.00  0.00     0.030 H 
BRANCH  53  56
ATOM     56  C   LIG d   1       3.776   1.030 -11.180  0.00  0.00     0.049 C 
ATOM     57  H   LIG d   1       3.310   1.787 -11.811  0.00  0.00     0.056 H 
ATOM     58  H   LIG d   1       3.036   0.632 -10.484  0.00  0.00     0.056 H 
BRANCH  56  59
ATOM     59  O   LIG d   1       4.853   1.616 -10.447  0.00  0.00    -0.380 OA
BRANCH  59  60
ATOM     60  C   LIG d   1       4.482   2.091  -9.150  0.00  0.00     0.045 C 
ATOM     61  H   LIG d   1       4.936   1.459  -8.388  0.00  0.00     0.056 H 
ATOM     62  H   LIG d   1       4.828   3.117  -9.026  0.00  0.00     0.056 H 
BRANCH  60  63
ATOM     63  C   LIG d   1       2.959   2.047  -9.009  0.00  0.00    -0.042 C 
ATOM     64  H   LIG d   1       2.623   2.907  -8.429  0.00  0.00     0.025 H 
ATOM     65  H   LIG d   1       2.501   2.073  -9.997  0.00  0.00     0.025 H 
ATOM     66  H   LIG d   1       2.669   1.128  -8.498  0.00  0.00     0.025 H 
ENDBRANCH  60  63
ENDBRANCH  59  60
ENDBRANCH  56  59
ENDBRANCH  53  56
ENDBRANCH  50  53
ENDBRANCH   1  50
TORSDOF 11
ENDMDL
MODEL 3
REMARK VINA RESULT:      -6.7      2.190      5.097
REMARK  11 active torsions:
REMARK  status: ('A' for Active; 'I' for Inactive)
REMARK    1  A    between atoms: C_1  and  C_2 
REMARK    2  A    between atoms: C_2  and  O_3 
REMARK    3  A    between atoms: O_3  and  C_4 
REMARK    4  A    between atoms: C_4  and  C_5 
REMARK    5  A    between atoms: C_5  and  C_6 
REMARK    6  A    between atoms: C_6  and  N_7 
REMARK    7  A    between atoms: C_27  and  C_29 
REMARK    8  A    between atoms: C_33  and  O_37 
REMARK    9  A    between atoms: C_34  and  O_35 
REMARK   10  A    between atoms: O_35  and  C_36 
REMARK   11  A    between atoms: O_37  and  C_38 
ROOT
ATOM      1  N   LIG d   1       6.538  -6.234  -5.638  0.00  0.00    -0.291 N 
ATOM      2  C   LIG d   1       5.256  -6.444  -6.291  0.00  0.00     0.091 A 
ATOM      3  C   LIG d   1       4.567  -5.156  -6.601  0.00  0.00     0.234 A 
ATOM      4  O   LIG d   1       3.497  -5.210  -7.170  0.00  0.00    -0.274 OA
ATOM      5  N   LIG d   1       5.047  -3.949  -6.293  0.00  0.00    -0.276 N 
ATOM      6  C   LIG d   1       6.282  -3.751  -5.537  0.00  0.00     0.107 A 
ATOM      7  H   LIG d   1       6.933  -3.078  -6.094  0.00  0.00     0.060 H 
ATOM      8  C   LIG d   1       7.009  -5.035  -5.297  0.00  0.00     0.237 A 
ATOM      9  O   LIG d   1       8.094  -4.983  -4.760  0.00  0.00    -0.274 OA
ATOM     10  C   LIG d   1       5.950  -3.089  -4.192  0.00  0.00     0.002 C 
ATOM     11  C   LIG d   1       4.984  -1.956  -4.433  0.00  0.00    -0.015 A 
ATOM     12  C   LIG d   1       4.665  -0.847  -3.556  0.00  0.00     0.003 A 
ATOM     13  C   LIG d   1       5.111  -0.488  -2.281  0.00  0.00    -0.052 A 
ATOM     14  C   LIG d   1       4.577   0.653  -1.735  0.00  0.00    -0.061 A 
ATOM     15  C   LIG d   1       3.640   1.421  -2.408  0.00  0.00    -0.060 A 
ATOM     16  C   LIG d   1       3.181   1.089  -3.670  0.00  0.00    -0.038 A 
ATOM     17  C   LIG d   1       3.706  -0.065  -4.249  0.00  0.00     0.047 A 
ATOM     18  N   LIG d   1       3.480  -0.670  -5.452  0.00  0.00    -0.356 N 
ATOM     19  H   LIG d   1       2.865  -0.350  -6.131  0.00  0.00     0.166 HD
ATOM     20  C   LIG d   1       4.251  -1.797  -5.555  0.00  0.00     0.046 A 
ATOM     21  C   LIG d   1       4.305  -2.748  -6.730  0.00  0.00     0.096 C 
ATOM     22  H   LIG d   1       3.293  -3.025  -7.028  0.00  0.00     0.062 H 
ATOM     23  H   LIG d   1       4.619  -7.039  -5.637  0.00  0.00     0.056 H 
ATOM     24  H   LIG d   1       5.418  -6.991  -7.220  0.00  0.00     0.056 H 
ATOM     25  H   LIG d   1       5.490  -3.821  -3.529  0.00  0.00     0.034 H 
ATOM     26  H   LIG d   1       6.863  -2.706  -3.737  0.00  0.00     0.034 H 
ATOM     27  H   LIG d   1       5.840  -1.082  -1.749  0.00  0.00     0.062 H 
ATOM     28  H   LIG d   1       4.898   0.962  -0.752  0.00  0.00     0.062 H 
ATOM     29  H   LIG d   1       3.255   2.309  -1.929  0.00  0.00     0.062 H 
ATOM     30  H   LIG d   1       2.450   1.696  -4.184  0.00  0.00     0.064 H 
ENDROOT
BRANCH  21  31
ATOM     31  C   LIG d   1       5.019  -2.095  -7.885  0.00  0.00     0.024 A 
ATOM     32  C   LIG d   1       4.300  -1.656  -8.984  0.00  0.00     0.167 A 
ATOM     33  C   LIG d   1       4.963  -1.053 -10.050  0.00  0.00     0.162 A 
ATOM     34  C   LIG d   1       6.339  -0.898 -10.006  0.00  0.00    -0.016 A 
ATOM     35  C   LIG d   1       7.050  -1.339  -8.906  0.00  0.00    -0.058 A 
ATOM     36  H   LIG d   1       6.855  -0.431 -10.832  0.00  0.00     0.066 H 
ATOM     37  C   LIG d   1       6.392  -1.932  -7.846  0.00  0.00    -0.053 A 
ATOM     38  H   LIG d   1       8.123  -1.217  -8.873  0.00  0.00     0.062 H 
ATOM     39  H   LIG d   1       6.950  -2.271  -6.986  0.00  0.00     0.062 H 
BRANCH  32  40
ATOM     40  O   LIG d   1       2.950  -1.812  -9.022  0.00  0.00    -0.491 OA
BRANCH  40  41
ATOM     41  C   LIG d   1       2.449  -2.952  -9.725  0.00  0.00     0.079 C 
ATOM     42  H   LIG d   1       2.265  -2.686 -10.765  0.00  0.00     0.066 H 
ATOM     43  H   LIG d   1       3.181  -3.758  -9.678  0.00  0.00     0.066 H 
ATOM     44  H   LIG d   1       1.517  -3.281  -9.265  0.00  0.00     0.066 H 
ENDBRANCH  40  41
ENDBRANCH  32  40
BRANCH  33  45
ATOM     45  O   LIG d   1       4.261  -0.621 -11.131  0.00  0.00    -0.491 OA
BRANCH  45  46
ATOM     46  C   LIG d   1       4.056   0.789 -11.249  0.00  0.00     0.079 C 
ATOM     47  H   LIG d   1       4.358   1.279 -10.323  0.00  0.00     0.066 H 
ATOM     48  H   LIG d   1       4.653   1.175 -12.076  0.00  0.00     0.066 H 
ATOM     49  H   LIG d   1       3.001   0.989 -11.439  0.00  0.00     0.066 H 
ENDBRANCH  45  46
ENDBRANCH  33  45
ENDBRANCH  21  31
BRANCH   1  50
ATOM     50  C   LIG d   1       7.360  -7.409  -5.336  0.00  0.00     0.017 C 
ATOM     51  H   LIG d   1       8.115  -7.533  -6.112  0.00  0.00     0.046 H 
ATOM     52  H   LIG d   1       7.850  -7.272  -4.371  0.00  0.00     0.046 H 
BRANCH  50  53
ATOM     53  C   LIG d   1       6.471  -8.653  -5.284  0.00  0.00    -0.014 C 
ATOM     54  H   LIG d   1       5.429  -8.351  -5.184  0.00  0.00     0.030 H 
ATOM     55  H   LIG d   1       6.595  -9.227  -6.202  0.00  0.00     0.030 H 
BRANCH  53  56
ATOM     56  C   LIG d   1       6.871  -9.515  -4.085  0.00  0.00     0.049 C 
ATOM     57  H   LIG d   1       7.341 -10.432  -4.438  0.00  0.00     0.056 H 
ATOM     58  H   LIG d   1       7.573  -8.964  -3.460  0.00  0.00     0.056 H 
BRANCH  56  59
ATOM     59  O   LIG d   1       5.706  -9.838  -3.322  0.00  0.00    -0.380 OA
BRANCH  59  60
ATOM     60  C   LIG d   1       4.506  -9.908  -4.096  0.00  0.00     0.045 C 
ATOM     61  H   LIG d   1       4.349  -8.959  -4.608  0.00  0.00     0.056 H 
ATOM     62  H   LIG d   1       4.593 -10.708  -4.830  0.00  0.00     0.056 H 
BRANCH  60  63
ATOM     63  C   LIG d   1       3.320 -10.191  -3.171  0.00  0.00    -0.042 C 
ATOM     64  H   LIG d   1       2.941 -11.195  -3.364  0.00  0.00     0.025 H 
ATOM     65  H   LIG d   1       3.644 -10.118  -2.133  0.00  0.00     0.025 H 
ATOM     66  H   LIG d   1       2.532  -9.462  -3.359  0.00  0.00     0.025 H 
ENDBRANCH  60  63
ENDBRANCH  59  60
ENDBRANCH  56  59
ENDBRANCH  53  56
ENDBRANCH  50  53
ENDBRANCH   1  50
TORSDOF 11
ENDMDL
MODEL 4
REMARK VINA RESULT:      -6.5      2.856      6.413
REMARK  11 active torsions:
REMARK  status: ('A' for Active; 'I' for Inactive)
REMARK    1  A    between atoms: C_1  and  C_2 
REMARK    2  A    between atoms: C_2  and  O_3 
REMARK    3  A    between atoms: O_3  and  C_4 
REMARK    4  A    between atoms: C_4  and  C_5 
REMARK    5  A    between atoms: C_5  and  C_6 
REMARK    6  A    between atoms: C_6  and  N_7 
REMARK    7  A    between atoms: C_27  and  C_29 
REMARK    8  A    between atoms: C_33  and  O_37 
REMARK    9  A    between atoms: C_34  and  O_35 
REMARK   10  A    between atoms: O_35  and  C_36 
REMARK   11  A    between atoms: O_37  and  C_38 
ROOT
ATOM      1  N   LIG d   1       9.486  -4.380  -6.326  0.00  0.00    -0.291 N 
ATOM      2  C   LIG d   1       8.810  -5.569  -5.834  0.00  0.00     0.091 A 
ATOM      3  C   LIG d   1       7.362  -5.322  -5.567  0.00  0.00     0.234 A 
ATOM      4  O   LIG d   1       6.692  -6.254  -5.174  0.00  0.00    -0.274 OA
ATOM      5  N   LIG d   1       6.754  -4.145  -5.729  0.00  0.00    -0.276 N 
ATOM      6  C   LIG d   1       7.464  -2.927  -6.117  0.00  0.00     0.107 A 
ATOM      7  H   LIG d   1       6.970  -2.492  -6.986  0.00  0.00     0.060 H 
ATOM      8  C   LIG d   1       8.894  -3.194  -6.459  0.00  0.00     0.237 A 
ATOM      9  O   LIG d   1       9.558  -2.272  -6.884  0.00  0.00    -0.274 OA
ATOM     10  C   LIG d   1       7.389  -1.912  -4.967  0.00  0.00     0.002 C 
ATOM     11  C   LIG d   1       5.975  -1.867  -4.449  0.00  0.00    -0.015 A 
ATOM     12  C   LIG d   1       5.348  -0.842  -3.638  0.00  0.00     0.003 A 
ATOM     13  C   LIG d   1       5.818   0.358  -3.098  0.00  0.00    -0.052 A 
ATOM     14  C   LIG d   1       4.929   1.096  -2.357  0.00  0.00    -0.061 A 
ATOM     15  C   LIG d   1       3.624   0.681  -2.147  0.00  0.00    -0.060 A 
ATOM     16  C   LIG d   1       3.132  -0.503  -2.669  0.00  0.00    -0.038 A 
ATOM     17  C   LIG d   1       4.013  -1.272  -3.426  0.00  0.00     0.047 A 
ATOM     18  N   LIG d   1       3.864  -2.466  -4.072  0.00  0.00    -0.356 N 
ATOM     19  H   LIG d   1       3.048  -2.990  -4.095  0.00  0.00     0.166 HD
ATOM     20  C   LIG d   1       5.040  -2.811  -4.684  0.00  0.00     0.046 A 
ATOM     21  C   LIG d   1       5.295  -4.053  -5.509  0.00  0.00     0.096 C 
ATOM     22  H   LIG d   1       4.945  -4.934  -4.970  0.00  0.00     0.062 H 
ATOM     23  H   LIG d   1       9.291  -5.893  -4.911  0.00  0.00     0.056 H 
ATOM     24  H   LIG d   1       8.903  -6.362  -6.576  0.00  0.00     0.056 H 
ATOM     25  H   LIG d   1       8.060  -2.220  -4.165  0.00  0.00     0.034 H 
ATOM     26  H   LIG d   1       7.682  -0.927  -5.330  0.00  0.00     0.034 H 
ATOM     27  H   LIG d   1       6.835   0.690  -3.255  0.00  0.00     0.062 H 
ATOM     28  H   LIG d   1       5.256   2.030  -1.924  0.00  0.00     0.062 H 
ATOM     29  H   LIG d   1       2.968   1.303  -1.556  0.00  0.00     0.062 H 
ATOM     30  H   LIG d   1       2.113  -0.816  -2.498  0.00  0.00     0.064 H 
ENDROOT
BRANCH  21  31
ATOM     31  C   LIG d   1       4.582  -3.946  -6.832  0.00  0.00     0.024 A 
ATOM     32  C   LIG d   1       3.870  -5.027  -7.324  0.00  0.00     0.167 A 
ATOM     33  C   LIG d   1       3.212  -4.924  -8.546  0.00  0.00     0.162 A 
ATOM     34  C   LIG d   1       3.275  -3.742  -9.266  0.00  0.00    -0.016 A 
ATOM     35  C   LIG d   1       3.988  -2.667  -8.769  0.00  0.00    -0.058 A 
ATOM     36  H   LIG d   1       2.766  -3.660 -10.215  0.00  0.00     0.066 H 
ATOM     37  C   LIG d   1       4.636  -2.766  -7.553  0.00  0.00    -0.053 A 
ATOM     38  H   LIG d   1       4.036  -1.745  -9.330  0.00  0.00     0.062 H 
ATOM     39  H   LIG d   1       5.188  -1.923  -7.165  0.00  0.00     0.062 H 
BRANCH  32  40
ATOM     40  O   LIG d   1       3.813  -6.185  -6.614  0.00  0.00    -0.491 OA
BRANCH  40  41
ATOM     41  C   LIG d   1       4.493  -7.316  -7.164  0.00  0.00     0.079 C 
ATOM     42  H   LIG d   1       5.523  -7.328  -6.812  0.00  0.00     0.066 H 
ATOM     43  H   LIG d   1       3.989  -8.231  -6.850  0.00  0.00     0.066 H 
ATOM     44  H   LIG d   1       4.481  -7.252  -8.253  0.00  0.00     0.066 H 
ENDBRANCH  40  41
ENDBRANCH  32  40
BRANCH  33  45
ATOM     45  O   LIG d   1       2.512  -5.983  -9.034  0.00  0.00    -0.491 OA
BRANCH  45  46
ATOM     46  C   LIG d   1       1.724  -5.755 -10.205  0.00  0.00     0.079 C 
ATOM     47  H   LIG d   1       0.822  -6.365 -10.160  0.00  0.00     0.066 H 
ATOM     48  H   LIG d   1       1.448  -4.701 -10.256  0.00  0.00     0.066 H 
ATOM     49  H   LIG d   1       2.301  -6.022 -11.090  0.00  0.00     0.066 H 
ENDBRANCH  45  46
ENDBRANCH  33  45
ENDBRANCH  21  31
BRANCH   1  50
ATOM     50  C   LIG d   1      10.899  -4.492  -6.697  0.00  0.00     0.017 C 
ATOM     51  H   LIG d   1      11.011  -5.249  -7.473  0.00  0.00     0.046 H 
ATOM     52  H   LIG d   1      11.253  -3.531  -7.073  0.00  0.00     0.046 H 
BRANCH  50  53
ATOM     53  C   LIG d   1      11.718  -4.893  -5.469  0.00  0.00    -0.014 C 
ATOM     54  H   LIG d   1      11.182  -5.659  -4.909  0.00  0.00     0.030 H 
ATOM     55  H   LIG d   1      12.684  -5.286  -5.789  0.00  0.00     0.030 H 
BRANCH  53  56
ATOM     56  C   LIG d   1      11.936  -3.668  -4.579  0.00  0.00     0.049 C 
ATOM     57  H   LIG d   1      12.910  -3.231  -4.795  0.00  0.00     0.056 H 
ATOM     58  H   LIG d   1      11.156  -2.932  -4.778  0.00  0.00     0.056 H 
BRANCH  56  59
ATOM     59  O   LIG d   1      11.881  -4.061  -3.206  0.00  0.00    -0.380 OA
BRANCH  59  60
ATOM     60  C   LIG d   1      10.790  -4.930  -2.895  0.00  0.00     0.045 C 
ATOM     61  H   LIG d   1      10.548  -5.537  -3.767  0.00  0.00     0.056 H 
ATOM     62  H   LIG d   1      11.068  -5.579  -2.065  0.00  0.00     0.056 H 
BRANCH  60  63
ATOM     63  C   LIG d   1       9.569  -4.094  -2.502  0.00  0.00    -0.042 C 
ATOM     64  H   LIG d   1       9.831  -3.436  -1.674  0.00  0.00     0.025 H 
ATOM     65  H   LIG d   1       9.250  -3.495  -3.355  0.00  0.00     0.025 H 
ATOM     66  H   LIG d   1       8.758  -4.756  -2.198  0.00  0.00     0.025 H 
ENDBRANCH  60  63
ENDBRANCH  59  60
ENDBRANCH  56  59
ENDBRANCH  53  56
ENDBRANCH  50  53
ENDBRANCH   1  50
TORSDOF 11
ENDMDL
MODEL 5
REMARK VINA RESULT:      -6.2      2.715      5.589
REMARK  11 active torsions:
REMARK  status: ('A' for Active; 'I' for Inactive)
REMARK    1  A    between atoms: C_1  and  C_2 
REMARK    2  A    between atoms: C_2  and  O_3 
REMARK    3  A    between atoms: O_3  and  C_4 
REMARK    4  A    between atoms: C_4  and  C_5 
REMARK    5  A    between atoms: C_5  and  C_6 
REMARK    6  A    between atoms: C_6  and  N_7 
REMARK    7  A    between atoms: C_27  and  C_29 
REMARK    8  A    between atoms: C_33  and  O_37 
REMARK    9  A    between atoms: C_34  and  O_35 
REMARK   10  A    between atoms: O_35  and  C_36 
REMARK   11  A    between atoms: O_37  and  C_38 
ROOT
ATOM      1  N   LIG d   1       7.468  -5.941  -5.460  0.00  0.00    -0.291 N 
ATOM      2  C   LIG d   1       6.208  -6.376  -6.043  0.00  0.00     0.091 A 
ATOM      3  C   LIG d   1       5.318  -5.225  -6.377  0.00  0.00     0.234 A 
ATOM      4  O   LIG d   1       4.247  -5.470  -6.892  0.00  0.00    -0.274 OA
ATOM      5  N   LIG d   1       5.618  -3.945  -6.145  0.00  0.00    -0.276 N 
ATOM      6  C   LIG d   1       6.837  -3.523  -5.457  0.00  0.00     0.107 A 
ATOM      7  H   LIG d   1       7.354  -2.788  -6.073  0.00  0.00     0.060 H 
ATOM      8  C   LIG d   1       7.761  -4.669  -5.195  0.00  0.00     0.237 A 
ATOM      9  O   LIG d   1       8.846  -4.425  -4.712  0.00  0.00    -0.274 OA
ATOM     10  C   LIG d   1       6.459  -2.852  -4.128  0.00  0.00     0.002 C 
ATOM     11  C   LIG d   1       5.322  -1.893  -4.374  0.00  0.00    -0.015 A 
ATOM     12  C   LIG d   1       4.871  -0.802  -3.533  0.00  0.00     0.003 A 
ATOM     13  C   LIG d   1       5.306  -0.316  -2.297  0.00  0.00    -0.052 A 
ATOM     14  C   LIG d   1       4.625   0.757  -1.778  0.00  0.00    -0.061 A 
ATOM     15  C   LIG d   1       3.555   1.339  -2.439  0.00  0.00    -0.060 A 
ATOM     16  C   LIG d   1       3.103   0.878  -3.663  0.00  0.00    -0.038 A 
ATOM     17  C   LIG d   1       3.776  -0.211  -4.214  0.00  0.00     0.047 A 
ATOM     18  N   LIG d   1       3.599  -0.904  -5.377  0.00  0.00    -0.356 N 
ATOM     19  H   LIG d   1       2.916  -0.715  -6.040  0.00  0.00     0.166 HD
ATOM     20  C   LIG d   1       4.530  -1.904  -5.466  0.00  0.00     0.046 A 
ATOM     21  C   LIG d   1       4.683  -2.894  -6.599  0.00  0.00     0.096 C 
ATOM     22  H   LIG d   1       3.715  -3.336  -6.838  0.00  0.00     0.062 H 
ATOM     23  H   LIG d   1       5.697  -7.027  -5.335  0.00  0.00     0.056 H 
ATOM     24  H   LIG d   1       6.416  -6.939  -6.953  0.00  0.00     0.056 H 
ATOM     25  H   LIG d   1       6.145  -3.612  -3.413  0.00  0.00     0.034 H 
ATOM     26  H   LIG d   1       7.320  -2.313  -3.734  0.00  0.00     0.034 H 
ATOM     27  H   LIG d   1       6.139  -0.764  -1.774  0.00  0.00     0.062 H 
ATOM     28  H   LIG d   1       4.933   1.161  -0.825  0.00  0.00     0.062 H 
ATOM     29  H   LIG d   1       3.057   2.182  -1.983  0.00  0.00     0.062 H 
ATOM     30  H   LIG d   1       2.268   1.339  -4.168  0.00  0.00     0.064 H 
ENDROOT
BRANCH  21  31
ATOM     31  C   LIG d   1       5.242  -2.200  -7.814  0.00  0.00     0.024 A 
ATOM     32  C   LIG d   1       4.430  -1.962  -8.910  0.00  0.00     0.167 A 
ATOM     33  C   LIG d   1       4.949  -1.320 -10.031  0.00  0.00     0.162 A 
ATOM     34  C   LIG d   1       6.277  -0.925 -10.045  0.00  0.00    -0.016 A 
ATOM     35  C   LIG d   1       7.082  -1.167  -8.948  0.00  0.00    -0.058 A 
ATOM     36  H   LIG d   1       6.682  -0.428 -10.914  0.00  0.00     0.066 H 
ATOM     37  C   LIG d   1       6.565  -1.798  -7.833  0.00  0.00    -0.053 A 
ATOM     38  H   LIG d   1       8.117  -0.858  -8.960  0.00  0.00     0.062 H 
ATOM     39  H   LIG d   1       7.196  -1.981  -6.975  0.00  0.00     0.062 H 
BRANCH  32  40
ATOM     40  O   LIG d   1       3.127  -2.353  -8.891  0.00  0.00    -0.491 OA
BRANCH  40  41
ATOM     41  C   LIG d   1       2.812  -3.586  -9.541  0.00  0.00     0.079 C 
ATOM     42  H   LIG d   1       2.494  -3.388 -10.564  0.00  0.00     0.066 H 
ATOM     43  H   LIG d   1       3.694  -4.227  -9.552  0.00  0.00     0.066 H 
ATOM     44  H   LIG d   1       2.007  -4.086  -9.001  0.00  0.00     0.066 H 
ENDBRANCH  40  41
ENDBRANCH  32  40
BRANCH  33  45
ATOM     45  O   LIG d   1       4.156  -1.084 -11.110  0.00  0.00    -0.491 OA
BRANCH  45  46
ATOM     46  C   LIG d   1       4.208   0.226 -11.678  0.00  0.00     0.079 C 
ATOM     47  H   LIG d   1       5.199   0.402 -12.097  0.00  0.00     0.066 H 
ATOM     48  H   LIG d   1       3.461   0.309 -12.469  0.00  0.00     0.066 H 
ATOM     49  H   LIG d   1       4.002   0.967 -10.906  0.00  0.00     0.066 H 
ENDBRANCH  45  46
ENDBRANCH  33  45
ENDBRANCH  21  31
BRANCH   1  50
ATOM     50  C   LIG d   1       8.472  -6.961  -5.146  0.00  0.00     0.017 C 
ATOM     51  H   LIG d   1       8.856  -7.389  -6.071  0.00  0.00     0.046 H 
ATOM     52  H   LIG d   1       9.291  -6.505  -4.588  0.00  0.00     0.046 H 
BRANCH  50  53
ATOM     53  C   LIG d   1       7.831  -8.062  -4.299  0.00  0.00    -0.014 C 
ATOM     54  H   LIG d   1       6.810  -7.780  -4.047  0.00  0.00     0.030 H 
ATOM     55  H   LIG d   1       7.820  -8.995  -4.864  0.00  0.00     0.030 H 
BRANCH  53  56
ATOM     56  C   LIG d   1       8.640  -8.255  -3.015  0.00  0.00     0.049 C 
ATOM     57  H   LIG d   1       8.109  -7.800  -2.180  0.00  0.00     0.056 H 
ATOM     58  H   LIG d   1       8.773  -9.320  -2.826  0.00  0.00     0.056 H 
BRANCH  56  59
ATOM     59  O   LIG d   1       9.920  -7.635  -3.162  0.00  0.00    -0.380 OA
BRANCH  59  60
ATOM     60  C   LIG d   1      10.447  -7.098  -1.946  0.00  0.00     0.045 C 
ATOM     61  H   LIG d   1      10.295  -7.812  -1.137  0.00  0.00     0.056 H 
ATOM     62  H   LIG d   1      11.513  -6.906  -2.067  0.00  0.00     0.056 H 
BRANCH  60  63
ATOM     63  C   LIG d   1       9.727  -5.789  -1.613  0.00  0.00    -0.042 C 
ATOM     64  H   LIG d   1       9.987  -5.480  -0.601  0.00  0.00     0.025 H 
ATOM     65  H   LIG d   1      10.033  -5.017  -2.319  0.00  0.00     0.025 H 
ATOM     66  H   LIG d   1       8.650  -5.940  -1.682  0.00  0.00     0.025 H 
ENDBRANCH  60  63
ENDBRANCH  59  60
ENDBRANCH  56  59
ENDBRANCH  53  56
ENDBRANCH  50  53
ENDBRANCH   1  50
TORSDOF 11
ENDMDL
MODEL 6
REMARK VINA RESULT:      -6.1      3.237      4.643
REMARK  11 active torsions:
REMARK  status: ('A' for Active; 'I' for Inactive)
REMARK    1  A    between atoms: C_1  and  C_2 
REMARK    2  A    between atoms: C_2  and  O_3 
REMARK    3  A    between atoms: O_3  and  C_4 
REMARK    4  A    between atoms: C_4  and  C_5 
REMARK    5  A    between atoms: C_5  and  C_6 
REMARK    6  A    between atoms: C_6  and  N_7 
REMARK    7  A    between atoms: C_27  and  C_29 
REMARK    8  A    between atoms: C_33  and  O_37 
REMARK    9  A    between atoms: C_34  and  O_35 
REMARK   10  A    between atoms: O_35  and  C_36 
REMARK   11  A    between atoms: O_37  and  C_38 
ROOT
ATOM      1  N   LIG d   1       5.098  -5.995  -7.028  0.00  0.00    -0.291 N 
ATOM      2  C   LIG d   1       5.880  -5.292  -8.033  0.00  0.00     0.091 A 
ATOM      3  C   LIG d   1       6.627  -4.136  -7.454  0.00  0.00     0.234 A 
ATOM      4  O   LIG d   1       7.334  -3.490  -8.198  0.00  0.00    -0.274 OA
ATOM      5  N   LIG d   1       6.569  -3.764  -6.173  0.00  0.00    -0.276 N 
ATOM      6  C   LIG d   1       5.694  -4.406  -5.194  0.00  0.00     0.107 A 
ATOM      7  H   LIG d   1       6.290  -4.711  -4.334  0.00  0.00     0.060 H 
ATOM      8  C   LIG d   1       5.008  -5.610  -5.756  0.00  0.00     0.237 A 
ATOM      9  O   LIG d   1       4.328  -6.278  -5.007  0.00  0.00    -0.274 OA
ATOM     10  C   LIG d   1       4.645  -3.393  -4.714  0.00  0.00     0.002 C 
ATOM     11  C   LIG d   1       5.332  -2.085  -4.416  0.00  0.00    -0.015 A 
ATOM     12  C   LIG d   1       4.843  -0.974  -3.624  0.00  0.00     0.003 A 
ATOM     13  C   LIG d   1       3.649  -0.759  -2.929  0.00  0.00    -0.052 A 
ATOM     14  C   LIG d   1       3.519   0.442  -2.277  0.00  0.00    -0.061 A 
ATOM     15  C   LIG d   1       4.516   1.404  -2.300  0.00  0.00    -0.060 A 
ATOM     16  C   LIG d   1       5.707   1.218  -2.981  0.00  0.00    -0.038 A 
ATOM     17  C   LIG d   1       5.867   0.007  -3.652  0.00  0.00     0.047 A 
ATOM     18  N   LIG d   1       6.890  -0.495  -4.404  0.00  0.00    -0.356 N 
ATOM     19  H   LIG d   1       7.723  -0.034  -4.592  0.00  0.00     0.166 HD
ATOM     20  C   LIG d   1       6.564  -1.747  -4.853  0.00  0.00     0.046 A 
ATOM     21  C   LIG d   1       7.423  -2.650  -5.710  0.00  0.00     0.096 C 
ATOM     22  H   LIG d   1       7.804  -2.093  -6.566  0.00  0.00     0.062 H 
ATOM     23  H   LIG d   1       5.210  -4.928  -8.811  0.00  0.00     0.056 H 
ATOM     24  H   LIG d   1       6.592  -5.988  -8.477  0.00  0.00     0.056 H 
ATOM     25  H   LIG d   1       3.900  -3.241  -5.495  0.00  0.00     0.034 H 
ATOM     26  H   LIG d   1       4.159  -3.770  -3.814  0.00  0.00     0.034 H 
ATOM     27  H   LIG d   1       2.866  -1.502  -2.906  0.00  0.00     0.062 H 
ATOM     28  H   LIG d   1       2.611   0.644  -1.729  0.00  0.00     0.062 H 
ATOM     29  H   LIG d   1       4.359   2.331  -1.769  0.00  0.00     0.062 H 
ATOM     30  H   LIG d   1       6.476   1.975  -2.992  0.00  0.00     0.064 H 
ENDROOT
BRANCH  21  31
ATOM     31  C   LIG d   1       8.571  -3.188  -4.896  0.00  0.00     0.024 A 
ATOM     32  C   LIG d   1       9.873  -2.847  -5.226  0.00  0.00     0.167 A 
ATOM     33  C   LIG d   1      10.931  -3.346  -4.472  0.00  0.00     0.162 A 
ATOM     34  C   LIG d   1      10.678  -4.183  -3.397  0.00  0.00    -0.016 A 
ATOM     35  C   LIG d   1       9.377  -4.519  -3.074  0.00  0.00    -0.058 A 
ATOM     36  H   LIG d   1      11.498  -4.571  -2.811  0.00  0.00     0.066 H 
ATOM     37  C   LIG d   1       8.325  -4.019  -3.818  0.00  0.00    -0.053 A 
ATOM     38  H   LIG d   1       9.180  -5.171  -2.235  0.00  0.00     0.062 H 
ATOM     39  H   LIG d   1       7.309  -4.280  -3.560  0.00  0.00     0.062 H 
BRANCH  32  40
ATOM     40  O   LIG d   1      10.116  -2.027  -6.283  0.00  0.00    -0.491 OA
BRANCH  40  41
ATOM     41  C   LIG d   1      10.579  -2.642  -7.487  0.00  0.00     0.079 C 
ATOM     42  H   LIG d   1       9.803  -3.295  -7.884  0.00  0.00     0.066 H 
ATOM     43  H   LIG d   1      10.817  -1.871  -8.220  0.00  0.00     0.066 H 
ATOM     44  H   LIG d   1      11.473  -3.228  -7.274  0.00  0.00     0.066 H 
ENDBRANCH  40  41
ENDBRANCH  32  40
BRANCH  33  45
ATOM     45  O   LIG d   1      12.211  -3.015  -4.792  0.00  0.00    -0.491 OA
BRANCH  45  46
ATOM     46  C   LIG d   1      12.797  -1.927  -4.074  0.00  0.00     0.079 C 
ATOM     47  H   LIG d   1      12.037  -1.172  -3.873  0.00  0.00     0.066 H 
ATOM     48  H   LIG d   1      13.204  -2.293  -3.130  0.00  0.00     0.066 H 
ATOM     49  H   LIG d   1      13.598  -1.488  -4.669  0.00  0.00     0.066 H 
ENDBRANCH  45  46
ENDBRANCH  33  45
ENDBRANCH  21  31
BRANCH   1  50
ATOM     50  C   LIG d   1       4.366  -7.196  -7.439  0.00  0.00     0.017 C 
ATOM     51  H   LIG d   1       3.611  -7.435  -6.690  0.00  0.00     0.046 H 
ATOM     52  H   LIG d   1       3.881  -7.015  -8.399  0.00  0.00     0.046 H 
BRANCH  50  53
ATOM     53  C   LIG d   1       5.342  -8.367  -7.573  0.00  0.00    -0.014 C 
ATOM     54  H   LIG d   1       5.591  -8.513  -8.624  0.00  0.00     0.030 H 
ATOM     55  H   LIG d   1       6.251  -8.149  -7.012  0.00  0.00     0.030 H 
BRANCH  53  56
ATOM     56  C   LIG d   1       4.693  -9.637  -7.020  0.00  0.00     0.049 C 
ATOM     57  H   LIG d   1       3.818  -9.888  -7.618  0.00  0.00     0.056 H 
ATOM     58  H   LIG d   1       5.410 -10.458  -7.061  0.00  0.00     0.056 H 
BRANCH  56  59
ATOM     59  O   LIG d   1       4.299  -9.418  -5.664  0.00  0.00    -0.380 OA
BRANCH  59  60
ATOM     60  C   LIG d   1       4.354 -10.589  -4.847  0.00  0.00     0.045 C 
ATOM     61  H   LIG d   1       5.392 -10.809  -4.596  0.00  0.00     0.056 H 
ATOM     62  H   LIG d   1       3.786 -10.421  -3.932  0.00  0.00     0.056 H 
BRANCH  60  63
ATOM     63  C   LIG d   1       3.753 -11.771  -5.610  0.00  0.00    -0.042 C 
ATOM     64  H   LIG d   1       2.879 -11.436  -6.169  0.00  0.00     0.025 H 
ATOM     65  H   LIG d   1       4.495 -12.172  -6.302  0.00  0.00     0.025 H 
ATOM     66  H   LIG d   1       3.458 -12.548  -4.904  0.00  0.00     0.025 H 
ENDBRANCH  60  63
ENDBRANCH  59  60
ENDBRANCH  56  59
ENDBRANCH  53  56
ENDBRANCH  50  53
ENDBRANCH   1  50
TORSDOF 11
ENDMDL
MODEL 7
REMARK VINA RESULT:      -6.0      3.398      7.433
REMARK  11 active torsions:
REMARK  status: ('A' for Active; 'I' for Inactive)
REMARK    1  A    between atoms: C_1  and  C_2 
REMARK    2  A    between atoms: C_2  and  O_3 
REMARK    3  A    between atoms: O_3  and  C_4 
REMARK    4  A    between atoms: C_4  and  C_5 
REMARK    5  A    between atoms: C_5  and  C_6 
REMARK    6  A    between atoms: C_6  and  N_7 
REMARK    7  A    between atoms: C_27  and  C_29 
REMARK    8  A    between atoms: C_33  and  O_37 
REMARK    9  A    between atoms: C_34  and  O_35 
REMARK   10  A    between atoms: O_35  and  C_36 
REMARK   11  A    between atoms: O_37  and  C_38 
ROOT
ATOM      1  N   LIG d   1       3.757  -1.653  -8.355  0.00  0.00    -0.291 N 
ATOM      2  C   LIG d   1       3.483  -0.670  -7.318  0.00  0.00     0.091 A 
ATOM      3  C   LIG d   1       4.653  -0.471  -6.411  0.00  0.00     0.234 A 
ATOM      4  O   LIG d   1       4.545   0.347  -5.522  0.00  0.00    -0.274 OA
ATOM      5  N   LIG d   1       5.808  -1.132  -6.511  0.00  0.00    -0.276 N 
ATOM      6  C   LIG d   1       6.035  -2.198  -7.485  0.00  0.00     0.107 A 
ATOM      7  H   LIG d   1       6.940  -1.973  -8.050  0.00  0.00     0.060 H 
ATOM      8  C   LIG d   1       4.895  -2.341  -8.441  0.00  0.00     0.237 A 
ATOM      9  O   LIG d   1       5.012  -3.132  -9.352  0.00  0.00    -0.274 OA
ATOM     10  C   LIG d   1       6.253  -3.524  -6.741  0.00  0.00     0.002 C 
ATOM     11  C   LIG d   1       7.205  -3.288  -5.596  0.00  0.00    -0.015 A 
ATOM     12  C   LIG d   1       7.970  -4.266  -4.849  0.00  0.00     0.003 A 
ATOM     13  C   LIG d   1       8.066  -5.658  -4.931  0.00  0.00    -0.052 A 
ATOM     14  C   LIG d   1       8.905  -6.276  -4.039  0.00  0.00    -0.061 A 
ATOM     15  C   LIG d   1       9.629  -5.565  -3.095  0.00  0.00    -0.060 A 
ATOM     16  C   LIG d   1       9.552  -4.186  -2.990  0.00  0.00    -0.038 A 
ATOM     17  C   LIG d   1       8.708  -3.532  -3.884  0.00  0.00     0.047 A 
ATOM     18  N   LIG d   1       8.401  -2.213  -4.056  0.00  0.00    -0.356 N 
ATOM     19  H   LIG d   1       8.763  -1.483  -3.530  0.00  0.00     0.166 HD
ATOM     20  C   LIG d   1       7.506  -2.075  -5.084  0.00  0.00     0.046 A 
ATOM     21  C   LIG d   1       6.918  -0.781  -5.600  0.00  0.00     0.096 C 
ATOM     22  H   LIG d   1       6.540  -0.188  -4.767  0.00  0.00     0.062 H 
ATOM     23  H   LIG d   1       2.630  -1.006  -6.729  0.00  0.00     0.056 H 
ATOM     24  H   LIG d   1       3.234   0.280  -7.790  0.00  0.00     0.056 H 
ATOM     25  H   LIG d   1       5.301  -3.884  -6.352  0.00  0.00     0.034 H 
ATOM     26  H   LIG d   1       6.672  -4.262  -7.425  0.00  0.00     0.034 H 
ATOM     27  H   LIG d   1       7.505  -6.222  -5.663  0.00  0.00     0.062 H 
ATOM     28  H   LIG d   1       9.006  -7.351  -4.072  0.00  0.00     0.062 H 
ATOM     29  H   LIG d   1      10.274  -6.104  -2.418  0.00  0.00     0.062 H 
ATOM     30  H   LIG d   1      10.120  -3.643  -2.250  0.00  0.00     0.064 H 
ENDROOT
BRANCH  21  31
ATOM     31  C   LIG d   1       7.969  -0.003  -6.348  0.00  0.00     0.024 A 
ATOM     32  C   LIG d   1       8.192   1.329  -6.042  0.00  0.00     0.167 A 
ATOM     33  C   LIG d   1       9.164   2.046  -6.735  0.00  0.00     0.162 A 
ATOM     34  C   LIG d   1       9.903   1.423  -7.728  0.00  0.00    -0.016 A 
ATOM     35  C   LIG d   1       9.675   0.093  -8.027  0.00  0.00    -0.058 A 
ATOM     36  H   LIG d   1      10.657   1.977  -8.267  0.00  0.00     0.066 H 
ATOM     37  C   LIG d   1       8.714  -0.620  -7.336  0.00  0.00    -0.053 A 
ATOM     38  H   LIG d   1      10.251  -0.392  -8.802  0.00  0.00     0.062 H 
ATOM     39  H   LIG d   1       8.542  -1.661  -7.570  0.00  0.00     0.062 H 
BRANCH  32  40
ATOM     40  O   LIG d   1       7.463   1.936  -5.068  0.00  0.00    -0.491 OA
BRANCH  40  41
ATOM     41  C   LIG d   1       8.002   1.910  -3.744  0.00  0.00     0.079 C 
ATOM     42  H   LIG d   1       8.045   0.881  -3.389  0.00  0.00     0.066 H 
ATOM     43  H   LIG d   1       9.007   2.335  -3.752  0.00  0.00     0.066 H 
ATOM     44  H   LIG d   1       7.366   2.497  -3.081  0.00  0.00     0.066 H 
ENDBRANCH  40  41
ENDBRANCH  32  40
BRANCH  33  45
ATOM     45  O   LIG d   1       9.386   3.354  -6.439  0.00  0.00    -0.491 OA
BRANCH  45  46
ATOM     46  C   LIG d   1      10.663   3.687  -5.889  0.00  0.00     0.079 C 
ATOM     47  H   LIG d   1      10.901   2.996  -5.079  0.00  0.00     0.066 H 
ATOM     48  H   LIG d   1      11.424   3.611  -6.666  0.00  0.00     0.066 H 
ATOM     49  H   LIG d   1      10.639   4.705  -5.503  0.00  0.00     0.066 H 
ENDBRANCH  45  46
ENDBRANCH  33  45
ENDBRANCH  21  31
BRANCH   1  50
ATOM     50  C   LIG d   1       2.722  -1.901  -9.361  0.00  0.00     0.017 C 
ATOM     51  H   LIG d   1       3.104  -2.594 -10.111  0.00  0.00     0.046 H 
ATOM     52  H   LIG d   1       1.844  -2.333  -8.881  0.00  0.00     0.046 H 
BRANCH  50  53
ATOM     53  C   LIG d   1       2.338  -0.582 -10.033  0.00  0.00    -0.014 C 
ATOM     54  H   LIG d   1       1.334  -0.664 -10.449  0.00  0.00     0.030 H 
ATOM     55  H   LIG d   1       2.360   0.221  -9.296  0.00  0.00     0.030 H 
BRANCH  53  56
ATOM     56  C   LIG d   1       3.331  -0.272 -11.155  0.00  0.00     0.049 C 
ATOM     57  H   LIG d   1       4.229  -0.875 -11.021  0.00  0.00     0.056 H 
ATOM     58  H   LIG d   1       2.876  -0.506 -12.118  0.00  0.00     0.056 H 
BRANCH  56  59
ATOM     59  O   LIG d   1       3.676   1.114 -11.116  0.00  0.00    -0.380 OA
BRANCH  59  60
ATOM     60  C   LIG d   1       4.591   1.456 -10.071  0.00  0.00     0.045 C 
ATOM     61  H   LIG d   1       4.718   0.601  -9.406  0.00  0.00     0.056 H 
ATOM     62  H   LIG d   1       5.553   1.726 -10.505  0.00  0.00     0.056 H 
BRANCH  60  63
ATOM     63  C   LIG d   1       4.037   2.641  -9.277  0.00  0.00    -0.042 C 
ATOM     64  H   LIG d   1       4.516   2.678  -8.299  0.00  0.00     0.025 H 
ATOM     65  H   LIG d   1       4.240   3.566  -9.817  0.00  0.00     0.025 H 
ATOM     66  H   LIG d   1       2.961   2.522  -9.151  0.00  0.00     0.025 H 
ENDBRANCH  60  63
ENDBRANCH  59  60
ENDBRANCH  56  59
ENDBRANCH  53  56
ENDBRANCH  50  53
ENDBRANCH   1  50
TORSDOF 11
ENDMDL
MODEL 8
REMARK VINA RESULT:      -6.0      3.062      5.461
REMARK  11 active torsions:
REMARK  status: ('A' for Active; 'I' for Inactive)
REMARK    1  A    between atoms: C_1  and  C_2 
REMARK    2  A    between atoms: C_2  and  O_3 
REMARK    3  A    between atoms: O_3  and  C_4 
REMARK    4  A    between atoms: C_4  and  C_5 
REMARK    5  A    between atoms: C_5  and  C_6 
REMARK    6  A    between atoms: C_6  and  N_7 
REMARK    7  A    between atoms: C_27  and  C_29 
REMARK    8  A    between atoms: C_33  and  O_37 
REMARK    9  A    between atoms: C_34  and  O_35 
REMARK   10  A    between atoms: O_35  and  C_36 
REMARK   11  A    between atoms: O_37  and  C_38 
ROOT
ATOM      1  N   LIG d   1       5.649  -5.890  -7.271  0.00  0.00    -0.291 N 
ATOM      2  C   LIG d   1       6.506  -5.101  -8.141  0.00  0.00     0.091 A 
ATOM      3  C   LIG d   1       7.149  -3.965  -7.415  0.00  0.00     0.234 A 
ATOM      4  O   LIG d   1       7.907  -3.252  -8.039  0.00  0.00    -0.274 OA
ATOM      5  N   LIG d   1       6.947  -3.680  -6.127  0.00  0.00    -0.276 N 
ATOM      6  C   LIG d   1       5.998  -4.410  -5.288  0.00  0.00     0.107 A 
ATOM      7  H   LIG d   1       6.512  -4.754  -4.391  0.00  0.00     0.060 H 
ATOM      8  C   LIG d   1       5.416  -5.592  -5.994  0.00  0.00     0.237 A 
ATOM      9  O   LIG d   1       4.685  -6.327  -5.364  0.00  0.00    -0.274 OA
ATOM     10  C   LIG d   1       4.871  -3.460  -4.858  0.00  0.00     0.002 C 
ATOM     11  C   LIG d   1       5.478  -2.156  -4.407  0.00  0.00    -0.015 A 
ATOM     12  C   LIG d   1       4.872  -1.114  -3.603  0.00  0.00     0.003 A 
ATOM     13  C   LIG d   1       3.607  -0.978  -3.026  0.00  0.00    -0.052 A 
ATOM     14  C   LIG d   1       3.368   0.173  -2.317  0.00  0.00    -0.061 A 
ATOM     15  C   LIG d   1       4.329   1.161  -2.174  0.00  0.00    -0.060 A 
ATOM     16  C   LIG d   1       5.589   1.054  -2.737  0.00  0.00    -0.038 A 
ATOM     17  C   LIG d   1       5.859  -0.106  -3.461  0.00  0.00     0.047 A 
ATOM     18  N   LIG d   1       6.971  -0.528  -4.132  0.00  0.00    -0.356 N 
ATOM     19  H   LIG d   1       7.803  -0.033  -4.201  0.00  0.00     0.166 HD
ATOM     20  C   LIG d   1       6.736  -1.757  -4.690  0.00  0.00     0.046 A 
ATOM     21  C   LIG d   1       7.710  -2.576  -5.507  0.00  0.00     0.096 C 
ATOM     22  H   LIG d   1       8.159  -1.954  -6.282  0.00  0.00     0.062 H 
ATOM     23  H   LIG d   1       5.909  -4.705  -8.962  0.00  0.00     0.056 H 
ATOM     24  H   LIG d   1       7.284  -5.746  -8.551  0.00  0.00     0.056 H 
ATOM     25  H   LIG d   1       4.206  -3.278  -5.702  0.00  0.00     0.034 H 
ATOM     26  H   LIG d   1       4.308  -3.909  -4.040  0.00  0.00     0.034 H 
ATOM     27  H   LIG d   1       2.851  -1.743  -3.132  0.00  0.00     0.062 H 
ATOM     28  H   LIG d   1       2.402   0.313  -1.856  0.00  0.00     0.062 H 
ATOM     29  H   LIG d   1       4.086   2.046  -1.606  0.00  0.00     0.062 H 
ATOM     30  H   LIG d   1       6.329   1.831  -2.619  0.00  0.00     0.064 H 
ENDROOT
BRANCH  21  31
ATOM     31  C   LIG d   1       8.786  -3.136  -4.613  0.00  0.00     0.024 A 
ATOM     32  C   LIG d   1      10.102  -3.158  -5.043  0.00  0.00     0.167 A 
ATOM     33  C   LIG d   1      11.093  -3.676  -4.215  0.00  0.00     0.162 A 
ATOM     34  C   LIG d   1      10.758  -4.167  -2.963  0.00  0.00    -0.016 A 
ATOM     35  C   LIG d   1       9.443  -4.141  -2.540  0.00  0.00    -0.058 A 
ATOM     36  H   LIG d   1      11.526  -4.569  -2.319  0.00  0.00     0.066 H 
ATOM     37  C   LIG d   1       8.459  -3.622  -3.360  0.00  0.00    -0.053 A 
ATOM     38  H   LIG d   1       9.183  -4.524  -1.563  0.00  0.00     0.062 H 
ATOM     39  H   LIG d   1       7.433  -3.599  -3.023  0.00  0.00     0.062 H 
BRANCH  32  40
ATOM     40  O   LIG d   1      10.424  -2.676  -6.273  0.00  0.00    -0.491 OA
BRANCH  40  41
ATOM     41  C   LIG d   1      10.821  -1.305  -6.348  0.00  0.00     0.079 C 
ATOM     42  H   LIG d   1      11.851  -1.243  -6.698  0.00  0.00     0.066 H 
ATOM     43  H   LIG d   1      10.168  -0.775  -7.042  0.00  0.00     0.066 H 
ATOM     44  H   LIG d   1      10.746  -0.851  -5.360  0.00  0.00     0.066 H 
ENDBRANCH  40  41
ENDBRANCH  32  40
BRANCH  33  45
ATOM     45  O   LIG d   1      12.386  -3.701  -4.634  0.00  0.00    -0.491 OA
BRANCH  45  46
ATOM     46  C   LIG d   1      13.393  -3.471  -3.645  0.00  0.00     0.079 C 
ATOM     47  H   LIG d   1      13.996  -2.610  -3.933  0.00  0.00     0.066 H 
ATOM     48  H   LIG d   1      12.918  -3.276  -2.682  0.00  0.00     0.066 H 
ATOM     49  H   LIG d   1      14.030  -4.351  -3.563  0.00  0.00     0.066 H 
ENDBRANCH  45  46
ENDBRANCH  33  45
ENDBRANCH  21  31
BRANCH   1  50
ATOM     50  C   LIG d   1       5.005  -7.081  -7.831  0.00  0.00     0.017 C 
ATOM     51  H   LIG d   1       5.711  -7.911  -7.828  0.00  0.00     0.046 H 
ATOM     52  H   LIG d   1       4.135  -7.341  -7.228  0.00  0.00     0.046 H 
BRANCH  50  53
ATOM     53  C   LIG d   1       4.562  -6.792  -9.267  0.00  0.00    -0.014 C 
ATOM     54  H   LIG d   1       5.325  -6.199  -9.770  0.00  0.00     0.030 H 
ATOM     55  H   LIG d   1       4.425  -7.733  -9.801  0.00  0.00     0.030 H 
BRANCH  53  56
ATOM     56  C   LIG d   1       3.243  -6.019  -9.248  0.00  0.00     0.049 C 
ATOM     57  H   LIG d   1       2.432  -6.677  -9.561  0.00  0.00     0.056 H 
ATOM     58  H   LIG d   1       3.048  -5.658  -8.238  0.00  0.00     0.056 H 
BRANCH  56  59
ATOM     59  O   LIG d   1       3.329  -4.908 -10.143  0.00  0.00    -0.380 OA
BRANCH  59  60
ATOM     60  C   LIG d   1       2.715  -3.716  -9.648  0.00  0.00     0.045 C 
ATOM     61  H   LIG d   1       2.610  -2.997 -10.461  0.00  0.00     0.056 H 
ATOM     62  H   LIG d   1       1.731  -3.955  -9.244  0.00  0.00     0.056 H 
BRANCH  60  63
ATOM     63  C   LIG d   1       3.587  -3.114  -8.545  0.00  0.00    -0.042 C 
ATOM     64  H   LIG d   1       3.756  -3.859  -7.768  0.00  0.00     0.025 H 
ATOM     65  H   LIG d   1       4.544  -2.805  -8.966  0.00  0.00     0.025 H 
ATOM     66  H   LIG d   1       3.083  -2.248  -8.115  0.00  0.00     0.025 H 
ENDBRANCH  60  63
ENDBRANCH  59  60
ENDBRANCH  56  59
ENDBRANCH  53  56
ENDBRANCH  50  53
ENDBRANCH   1  50
TORSDOF 11
ENDMDL
MODEL 9
REMARK VINA RESULT:      -6.0      4.981      9.710
REMARK  11 active torsions:
REMARK  status: ('A' for Active; 'I' for Inactive)
REMARK    1  A    between atoms: C_1  and  C_2 
REMARK    2  A    between atoms: C_2  and  O_3 
REMARK    3  A    between atoms: O_3  and  C_4 
REMARK    4  A    between atoms: C_4  and  C_5 
REMARK    5  A    between atoms: C_5  and  C_6 
REMARK    6  A    between atoms: C_6  and  N_7 
REMARK    7  A    between atoms: C_27  and  C_29 
REMARK    8  A    between atoms: C_33  and  O_37 
REMARK    9  A    between atoms: C_34  and  O_35 
REMARK   10  A    between atoms: O_35  and  C_36 
REMARK   11  A    between atoms: O_37  and  C_38 
ROOT
ATOM      1  N   LIG d   1      11.077   3.480  -4.604  0.00  0.00    -0.291 N 
ATOM      2  C   LIG d   1      11.892   2.282  -4.485  0.00  0.00     0.091 A 
ATOM      3  C   LIG d   1      11.095   1.037  -4.701  0.00  0.00     0.234 A 
ATOM      4  O   LIG d   1      11.680  -0.024  -4.650  0.00  0.00    -0.274 OA
ATOM      5  N   LIG d   1       9.784   1.014  -4.947  0.00  0.00    -0.276 N 
ATOM      6  C   LIG d   1       8.951   2.215  -4.953  0.00  0.00     0.107 A 
ATOM      7  H   LIG d   1       8.399   2.257  -5.892  0.00  0.00     0.060 H 
ATOM      8  C   LIG d   1       9.762   3.463  -4.815  0.00  0.00     0.237 A 
ATOM      9  O   LIG d   1       9.187   4.527  -4.901  0.00  0.00    -0.274 OA
ATOM     10  C   LIG d   1       7.935   2.131  -3.805  0.00  0.00     0.002 C 
ATOM     11  C   LIG d   1       7.326   0.752  -3.794  0.00  0.00    -0.015 A 
ATOM     12  C   LIG d   1       6.103   0.316  -3.150  0.00  0.00     0.003 A 
ATOM     13  C   LIG d   1       5.153   0.982  -2.370  0.00  0.00    -0.052 A 
ATOM     14  C   LIG d   1       4.098   0.237  -1.907  0.00  0.00    -0.061 A 
ATOM     15  C   LIG d   1       3.969  -1.113  -2.192  0.00  0.00    -0.060 A 
ATOM     16  C   LIG d   1       4.895  -1.798  -2.960  0.00  0.00    -0.038 A 
ATOM     17  C   LIG d   1       5.977  -1.066  -3.444  0.00  0.00     0.047 A 
ATOM     18  N   LIG d   1       7.050  -1.417  -4.213  0.00  0.00    -0.356 N 
ATOM     19  H   LIG d   1       7.220  -2.307  -4.561  0.00  0.00     0.166 HD
ATOM     20  C   LIG d   1       7.848  -0.323  -4.422  0.00  0.00     0.046 A 
ATOM     21  C   LIG d   1       9.128  -0.282  -5.225  0.00  0.00     0.096 C 
ATOM     22  H   LIG d   1       9.781  -1.101  -4.923  0.00  0.00     0.062 H 
ATOM     23  H   LIG d   1      12.334   2.251  -3.489  0.00  0.00     0.056 H 
ATOM     24  H   LIG d   1      12.692   2.323  -5.224  0.00  0.00     0.056 H 
ATOM     25  H   LIG d   1       8.441   2.311  -2.857  0.00  0.00     0.034 H 
ATOM     26  H   LIG d   1       7.155   2.879  -3.952  0.00  0.00     0.034 H 
ATOM     27  H   LIG d   1       5.245   2.034  -2.142  0.00  0.00     0.062 H 
ATOM     28  H   LIG d   1       3.343   0.717  -1.302  0.00  0.00     0.062 H 
ATOM     29  H   LIG d   1       3.117  -1.650  -1.802  0.00  0.00     0.062 H 
ATOM     30  H   LIG d   1       4.784  -2.850  -3.175  0.00  0.00     0.064 H 
ENDROOT
BRANCH  21  31
ATOM     31  C   LIG d   1       8.815  -0.393  -6.695  0.00  0.00     0.024 A 
ATOM     32  C   LIG d   1       9.557  -1.241  -7.499  0.00  0.00     0.167 A 
ATOM     33  C   LIG d   1       9.264  -1.341  -8.856  0.00  0.00     0.162 A 
ATOM     34  C   LIG d   1       8.233  -0.590  -9.397  0.00  0.00    -0.016 A 
ATOM     35  C   LIG d   1       7.497   0.255  -8.588  0.00  0.00    -0.058 A 
ATOM     36  H   LIG d   1       8.005  -0.666 -10.449  0.00  0.00     0.066 H 
ATOM     37  C   LIG d   1       7.783   0.350  -7.240  0.00  0.00    -0.053 A 
ATOM     38  H   LIG d   1       6.692   0.840  -9.010  0.00  0.00     0.062 H 
ATOM     39  H   LIG d   1       7.202   1.008  -6.610  0.00  0.00     0.062 H 
BRANCH  32  40
ATOM     40  O   LIG d   1      10.569  -1.975  -6.964  0.00  0.00    -0.491 OA
BRANCH  40  41
ATOM     41  C   LIG d   1      10.248  -3.296  -6.522  0.00  0.00     0.079 C 
ATOM     42  H   LIG d   1       9.196  -3.341  -6.243  0.00  0.00     0.066 H 
ATOM     43  H   LIG d   1      10.442  -4.006  -7.326  0.00  0.00     0.066 H 
ATOM     44  H   LIG d   1      10.864  -3.550  -5.658  0.00  0.00     0.066 H 
ENDBRANCH  40  41
ENDBRANCH  32  40
BRANCH  33  45
ATOM     45  O   LIG d   1       9.991  -2.173  -9.650  0.00  0.00    -0.491 OA
BRANCH  45  46
ATOM     46  C   LIG d   1      10.865  -1.560 -10.602  0.00  0.00     0.079 C 
ATOM     47  H   LIG d   1      11.119  -0.555 -10.268  0.00  0.00     0.066 H 
ATOM     48  H   LIG d   1      11.775  -2.154 -10.692  0.00  0.00     0.066 H 
ATOM     49  H   LIG d   1      10.368  -1.508 -11.570  0.00  0.00     0.066 H 
ENDBRANCH  45  46
ENDBRANCH  33  45
ENDBRANCH  21  31
BRANCH   1  50
ATOM     50  C   LIG d   1      11.741   4.781  -4.484  0.00  0.00     0.017 C 
ATOM     51  H   LIG d   1      12.523   4.860  -5.238  0.00  0.00     0.046 H 
ATOM     52  H   LIG d   1      11.010   5.576  -4.632  0.00  0.00     0.046 H 
BRANCH  50  53
ATOM     53  C   LIG d   1      12.359   4.911  -3.090  0.00  0.00    -0.014 C 
ATOM     54  H   LIG d   1      12.204   3.985  -2.536  0.00  0.00     0.030 H 
ATOM     55  H   LIG d   1      13.428   5.103  -3.183  0.00  0.00     0.030 H 
BRANCH  53  56
ATOM     56  C   LIG d   1      11.696   6.070  -2.344  0.00  0.00     0.049 C 
ATOM     57  H   LIG d   1      12.249   6.277  -1.429  0.00  0.00     0.056 H 
ATOM     58  H   LIG d   1      11.697   6.958  -2.978  0.00  0.00     0.056 H 
BRANCH  56  59
ATOM     59  O   LIG d   1      10.349   5.719  -2.020  0.00  0.00    -0.380 OA
BRANCH  59  60
ATOM     60  C   LIG d   1       9.421   6.800  -2.145  0.00  0.00     0.045 C 
ATOM     61  H   LIG d   1       9.555   7.284  -3.113  0.00  0.00     0.056 H 
ATOM     62  H   LIG d   1       8.404   6.416  -2.068  0.00  0.00     0.056 H 
BRANCH  60  63
ATOM     63  C   LIG d   1       9.669   7.816  -1.028  0.00  0.00    -0.042 C 
ATOM     64  H   LIG d   1      10.011   8.756  -1.462  0.00  0.00     0.025 H 
ATOM     65  H   LIG d   1       8.744   7.984  -0.478  0.00  0.00     0.025 H 
ATOM     66  H   LIG d   1      10.431   7.431  -0.350  0.00  0.00     0.025 H 
ENDBRANCH  60  63
ENDBRANCH  59  60
ENDBRANCH  56  59
ENDBRANCH  53  56
ENDBRANCH  50  53
ENDBRANCH   1  50
TORSDOF 11
ENDMDL
