MODEL 1
REMARK VINA RESULT:      -7.6      0.000      0.000
REMARK  8 active torsions:
REMARK  status: ('A' for Active; 'I' for Inactive)
REMARK    1  A    between atoms: C_1  and  C_2 
REMARK    2  A    between atoms: C_2  and  C_3 
REMARK    3  A    between atoms: C_3  and  C_4 
REMARK    4  A    between atoms: C_3  and  C_8 
REMARK    5  A    between atoms: C_3  and  N_12 
REMARK       I    between atoms: N_12  and  C_13 
REMARK       I    between atoms: C_13  and  N_15 
REMARK    6  A    between atoms: N_15  and  C_16 
REMARK    7  A    between atoms: C_19  and  C_23 
REMARK    8  A    between atoms: C_21  and  C_22 
ROOT
ATOM      1  N   LIG d   1       3.476   0.664  -4.726  0.00  0.00    -0.278 N 
ATOM      2  C   LIG d   1       3.572   0.270  -6.011  0.00  0.00     0.305 C 
ATOM      3  O   LIG d   1       4.333  -0.627  -6.317  0.00  0.00    -0.253 OA
ATOM      4  N   LIG d   1       2.828   0.875  -6.959  0.00  0.00    -0.269 N 
ATOM      5  H   LIG d   1       2.905   1.413  -4.490  0.00  0.00     0.151 HD
ATOM      6  H   LIG d   1       2.259   1.624  -6.724  0.00  0.00     0.156 HD
ENDROOT
BRANCH   1   7
ATOM      7  C   LIG d   1       4.234  -0.036  -3.687  0.00  0.00     0.226 C 
BRANCH   7   8
ATOM      8  C   LIG d   1       5.589  -0.471  -4.249  0.00  0.00    -0.017 C 
ATOM      9  H   LIG d   1       5.433  -1.094  -5.130  0.00  0.00     0.029 H 
ATOM     10  H   LIG d   1       6.168   0.410  -4.525  0.00  0.00     0.029 H 
BRANCH   8  11
ATOM     11  C   LIG d   1       6.348  -1.270  -3.188  0.00  0.00    -0.063 C 
ATOM     12  H   LIG d   1       6.294  -0.749  -2.233  0.00  0.00     0.023 H 
ATOM     13  H   LIG d   1       5.902  -2.259  -3.090  0.00  0.00     0.023 H 
ATOM     14  H   LIG d   1       7.392  -1.371  -3.488  0.00  0.00     0.023 H 
ENDBRANCH   8  11
ENDBRANCH   7   8
BRANCH   7  15
ATOM     15  C   LIG d   1       4.453   0.900  -2.496  0.00  0.00     0.419 C 
ATOM     16  F   LIG d   1       4.671   0.143  -1.341  0.00  0.00    -0.168 F 
ATOM     17  F   LIG d   1       5.566   1.711  -2.739  0.00  0.00    -0.168 F 
ATOM     18  F   LIG d   1       3.321   1.703  -2.321  0.00  0.00    -0.168 F 
ENDBRANCH   7  15
BRANCH   7  19
ATOM     19  C   LIG d   1       3.452  -1.269  -3.228  0.00  0.00     0.419 C 
ATOM     20  F   LIG d   1       3.758  -2.350  -4.062  0.00  0.00    -0.168 F 
ATOM     21  F   LIG d   1       3.803  -1.581  -1.911  0.00  0.00    -0.168 F 
ATOM     22  F   LIG d   1       2.080  -1.002  -3.295  0.00  0.00    -0.168 F 
ENDBRANCH   7  19
ENDBRANCH   1   7
BRANCH   4  23
ATOM     23  C   LIG d   1       2.877   0.421  -8.282  0.00  0.00     0.038 A 
ATOM     24  C   LIG d   1       3.388   1.240  -9.280  0.00  0.00    -0.029 A 
ATOM     25  C   LIG d   1       3.442   0.787 -10.584  0.00  0.00    -0.054 A 
ATOM     26  C   LIG d   1       2.976  -0.477 -10.897  0.00  0.00    -0.050 A 
ATOM     27  H   LIG d   1       3.842   1.422 -11.360  0.00  0.00     0.062 H 
ATOM     28  C   LIG d   1       2.461  -1.292  -9.907  0.00  0.00    -0.057 A 
ATOM     29  C   LIG d   1       2.411  -0.848  -8.601  0.00  0.00    -0.040 A 
ATOM     30  H   LIG d   1       2.098  -2.279 -10.155  0.00  0.00     0.062 H 
ATOM     31  H   LIG d   1       2.008  -1.485  -7.827  0.00  0.00     0.064 H 
BRANCH  24  32
ATOM     32  C   LIG d   1       3.890   2.620  -8.940  0.00  0.00    -0.038 C 
ATOM     33  H   LIG d   1       3.854   2.763  -7.860  0.00  0.00     0.028 H 
ATOM     34  H   LIG d   1       4.917   2.729  -9.287  0.00  0.00     0.028 H 
ATOM     35  H   LIG d   1       3.261   3.365  -9.426  0.00  0.00     0.028 H 
ENDBRANCH  24  32
BRANCH  26  36
ATOM     36  C   LIG d   1       3.029  -0.965 -12.321  0.00  0.00    -0.040 C 
ATOM     37  H   LIG d   1       2.035  -0.902 -12.765  0.00  0.00     0.028 H 
ATOM     38  H   LIG d   1       3.721  -0.346 -12.893  0.00  0.00     0.028 H 
ATOM     39  H   LIG d   1       3.369  -2.000 -12.338  0.00  0.00     0.028 H 
ENDBRANCH  26  36
ENDBRANCH   4  23
TORSDOF 8
ENDMDL
MODEL 2
REMARK VINA RESULT:      -7.3      1.338      2.047
REMARK  8 active torsions:
REMARK  status: ('A' for Active; 'I' for Inactive)
REMARK    1  A    between atoms: C_1  and  C_2 
REMARK    2  A    between atoms: C_2  and  C_3 
REMARK    3  A    between atoms: C_3  and  C_4 
REMARK    4  A    between atoms: C_3  and  C_8 
REMARK    5  A    between atoms: C_3  and  N_12 
REMARK       I    between atoms: N_12  and  C_13 
REMARK       I    between atoms: C_13  and  N_15 
REMARK    6  A    between atoms: N_15  and  C_16 
REMARK    7  A    between atoms: C_19  and  C_23 
REMARK    8  A    between atoms: C_21  and  C_22 
ROOT
ATOM      1  N   LIG d   1       4.954   0.300  -5.019  0.00  0.00    -0.278 N 
ATOM      2  C   LIG d   1       4.463  -0.134  -6.196  0.00  0.00     0.305 C 
ATOM      3  O   LIG d   1       3.610  -1.000  -6.218  0.00  0.00    -0.253 OA
ATOM      4  N   LIG d   1       4.921   0.389  -7.352  0.00  0.00    -0.269 N 
ATOM      5  H   LIG d   1       5.668   0.956  -5.003  0.00  0.00     0.151 HD
ATOM      6  H   LIG d   1       5.636   1.043  -7.337  0.00  0.00     0.156 HD
ENDROOT
BRANCH   1   7
ATOM      7  C   LIG d   1       4.409  -0.220  -3.762  0.00  0.00     0.226 C 
BRANCH   7   8
ATOM      8  C   LIG d   1       4.285  -1.742  -3.851  0.00  0.00    -0.017 C 
ATOM      9  H   LIG d   1       3.526  -2.002  -4.589  0.00  0.00     0.029 H 
ATOM     10  H   LIG d   1       5.243  -2.168  -4.149  0.00  0.00     0.029 H 
BRANCH   8  11
ATOM     11  C   LIG d   1       3.880  -2.301  -2.486  0.00  0.00    -0.063 C 
ATOM     12  H   LIG d   1       3.721  -1.478  -1.789  0.00  0.00     0.023 H 
ATOM     13  H   LIG d   1       2.960  -2.875  -2.587  0.00  0.00     0.023 H 
ATOM     14  H   LIG d   1       4.673  -2.948  -2.108  0.00  0.00     0.023 H 
ENDBRANCH   8  11
ENDBRANCH   7   8
BRANCH   7  15
ATOM     15  C   LIG d   1       5.345   0.150  -2.609  0.00  0.00     0.419 C 
ATOM     16  F   LIG d   1       5.607   1.523  -2.642  0.00  0.00    -0.168 F 
ATOM     17  F   LIG d   1       4.738  -0.180  -1.393  0.00  0.00    -0.168 F 
ATOM     18  F   LIG d   1       6.545  -0.557  -2.738  0.00  0.00    -0.168 F 
ENDBRANCH   7  15
BRANCH   7  19
ATOM     19  C   LIG d   1       3.028   0.391  -3.513  0.00  0.00     0.419 C 
ATOM     20  F   LIG d   1       2.938   0.810  -2.182  0.00  0.00    -0.168 F 
ATOM     21  F   LIG d   1       2.843   1.487  -4.361  0.00  0.00    -0.168 F 
ATOM     22  F   LIG d   1       2.042  -0.568  -3.768  0.00  0.00    -0.168 F 
ENDBRANCH   7  19
ENDBRANCH   1   7
BRANCH   4  23
ATOM     23  C   LIG d   1       4.364  -0.013  -8.570  0.00  0.00     0.038 A 
ATOM     24  C   LIG d   1       3.377   0.757  -9.172  0.00  0.00    -0.029 A 
ATOM     25  C   LIG d   1       2.834   0.362 -10.379  0.00  0.00    -0.054 A 
ATOM     26  C   LIG d   1       3.263  -0.806 -10.982  0.00  0.00    -0.050 A 
ATOM     27  H   LIG d   1       2.069   0.963 -10.848  0.00  0.00     0.062 H 
ATOM     28  C   LIG d   1       4.240  -1.578 -10.383  0.00  0.00    -0.057 A 
ATOM     29  C   LIG d   1       4.793  -1.185  -9.180  0.00  0.00    -0.040 A 
ATOM     30  H   LIG d   1       4.573  -2.490 -10.856  0.00  0.00     0.062 H 
ATOM     31  H   LIG d   1       5.556  -1.789  -8.711  0.00  0.00     0.064 H 
BRANCH  24  32
ATOM     32  C   LIG d   1       2.905   2.028  -8.511  0.00  0.00    -0.038 C 
ATOM     33  H   LIG d   1       3.177   2.882  -9.131  0.00  0.00     0.028 H 
ATOM     34  H   LIG d   1       1.822   1.994  -8.393  0.00  0.00     0.028 H 
ATOM     35  H   LIG d   1       3.374   2.124  -7.532  0.00  0.00     0.028 H 
ENDBRANCH  24  32
BRANCH  26  36
ATOM     36  C   LIG d   1       2.662  -1.238 -12.294  0.00  0.00    -0.040 C 
ATOM     37  H   LIG d   1       2.217  -0.376 -12.792  0.00  0.00     0.028 H 
ATOM     38  H   LIG d   1       3.441  -1.661 -12.929  0.00  0.00     0.028 H 
ATOM     39  H   LIG d   1       1.894  -1.990 -12.113  0.00  0.00     0.028 H 
ENDBRANCH  26  36
ENDBRANCH   4  23
TORSDOF 8
ENDMDL
MODEL 3
REMARK VINA RESULT:      -7.0      1.072      2.281
REMARK  8 active torsions:
REMARK  status: ('A' for Active; 'I' for Inactive)
REMARK    1  A    between atoms: C_1  and  C_2 
REMARK    2  A    between atoms: C_2  and  C_3 
REMARK    3  A    between atoms: C_3  and  C_4 
REMARK    4  A    between atoms: C_3  and  C_8 
REMARK    5  A    between atoms: C_3  and  N_12 
REMARK       I    between atoms: N_12  and  C_13 
REMARK       I    between atoms: C_13  and  N_15 
REMARK    6  A    between atoms: N_15  and  C_16 
REMARK    7  A    between atoms: C_19  and  C_23 
REMARK    8  A    between atoms: C_21  and  C_22 
ROOT
ATOM      1  N   LIG d   1       4.023   0.678  -4.705  0.00  0.00    -0.278 N 
ATOM      2  C   LIG d   1       3.829   0.202  -5.951  0.00  0.00     0.305 C 
ATOM      3  O   LIG d   1       4.105  -0.952  -6.211  0.00  0.00    -0.253 OA
ATOM      4  N   LIG d   1       3.332   1.010  -6.910  0.00  0.00    -0.269 N 
ATOM      5  H   LIG d   1       3.848   1.612  -4.509  0.00  0.00     0.151 HD
ATOM      6  H   LIG d   1       3.160   1.943  -6.715  0.00  0.00     0.156 HD
ENDROOT
BRANCH   1   7
ATOM      7  C   LIG d   1       4.499  -0.216  -3.646  0.00  0.00     0.226 C 
BRANCH   7   8
ATOM      8  C   LIG d   1       3.570  -1.427  -3.545  0.00  0.00    -0.017 C 
ATOM      9  H   LIG d   1       3.572  -1.967  -4.491  0.00  0.00     0.029 H 
ATOM     10  H   LIG d   1       3.917  -2.086  -2.749  0.00  0.00     0.029 H 
BRANCH   8  11
ATOM     11  C   LIG d   1       2.149  -0.954  -3.232  0.00  0.00    -0.063 C 
ATOM     12  H   LIG d   1       1.634  -1.715  -2.645  0.00  0.00     0.023 H 
ATOM     13  H   LIG d   1       2.192  -0.025  -2.665  0.00  0.00     0.023 H 
ATOM     14  H   LIG d   1       1.608  -0.787  -4.164  0.00  0.00     0.023 H 
ENDBRANCH   8  11
ENDBRANCH   7   8
BRANCH   7  15
ATOM     15  C   LIG d   1       5.917  -0.687  -3.976  0.00  0.00     0.419 C 
ATOM     16  F   LIG d   1       5.858  -1.918  -4.638  0.00  0.00    -0.168 F 
ATOM     17  F   LIG d   1       6.542   0.255  -4.800  0.00  0.00    -0.168 F 
ATOM     18  F   LIG d   1       6.648  -0.830  -2.792  0.00  0.00    -0.168 F 
ENDBRANCH   7  15
BRANCH   7  19
ATOM     19  C   LIG d   1       4.509   0.533  -2.312  0.00  0.00     0.419 C 
ATOM     20  F   LIG d   1       3.369   1.338  -2.222  0.00  0.00    -0.168 F 
ATOM     21  F   LIG d   1       4.515  -0.388  -1.260  0.00  0.00    -0.168 F 
ATOM     22  F   LIG d   1       5.653   1.335  -2.236  0.00  0.00    -0.168 F 
ENDBRANCH   7  19
ENDBRANCH   1   7
BRANCH   4  23
ATOM     23  C   LIG d   1       3.067   0.499  -8.185  0.00  0.00     0.038 A 
ATOM     24  C   LIG d   1       3.749   0.994  -9.289  0.00  0.00    -0.029 A 
ATOM     25  C   LIG d   1       3.490   0.484 -10.546  0.00  0.00    -0.054 A 
ATOM     26  C   LIG d   1       2.544  -0.512 -10.707  0.00  0.00    -0.050 A 
ATOM     27  H   LIG d   1       4.022   0.867 -11.404  0.00  0.00     0.062 H 
ATOM     28  C   LIG d   1       1.860  -1.004  -9.611  0.00  0.00    -0.057 A 
ATOM     29  C   LIG d   1       2.119  -0.502  -8.352  0.00  0.00    -0.040 A 
ATOM     30  H   LIG d   1       1.122  -1.782  -9.740  0.00  0.00     0.062 H 
ATOM     31  H   LIG d   1       1.583  -0.886  -7.495  0.00  0.00     0.064 H 
BRANCH  24  32
ATOM     32  C   LIG d   1       4.775   2.085  -9.114  0.00  0.00    -0.038 C 
ATOM     33  H   LIG d   1       4.639   2.560  -8.143  0.00  0.00     0.028 H 
ATOM     34  H   LIG d   1       5.775   1.655  -9.172  0.00  0.00     0.028 H 
ATOM     35  H   LIG d   1       4.654   2.827  -9.903  0.00  0.00     0.028 H 
ENDBRANCH  24  32
BRANCH  26  36
ATOM     36  C   LIG d   1       2.259  -1.062 -12.081  0.00  0.00    -0.040 C 
ATOM     37  H   LIG d   1       2.134  -0.238 -12.784  0.00  0.00     0.028 H 
ATOM     38  H   LIG d   1       3.091  -1.689 -12.401  0.00  0.00     0.028 H 
ATOM     39  H   LIG d   1       1.346  -1.657 -12.052  0.00  0.00     0.028 H 
ENDBRANCH  26  36
ENDBRANCH   4  23
TORSDOF 8
ENDMDL
MODEL 4
REMARK VINA RESULT:      -6.8      1.217      1.991
REMARK  8 active torsions:
REMARK  status: ('A' for Active; 'I' for Inactive)
REMARK    1  A    between atoms: C_1  and  C_2 
REMARK    2  A    between atoms: C_2  and  C_3 
REMARK    3  A    between atoms: C_3  and  C_4 
REMARK    4  A    between atoms: C_3  and  C_8 
REMARK    5  A    between atoms: C_3  and  N_12 
REMARK       I    between atoms: N_12  and  C_13 
REMARK       I    between atoms: C_13  and  N_15 
REMARK    6  A    between atoms: N_15  and  C_16 
REMARK    7  A    between atoms: C_19  and  C_23 
REMARK    8  A    between atoms: C_21  and  C_22 
ROOT
ATOM      1  N   LIG d   1       3.309  -0.601  -4.735  0.00  0.00    -0.278 N 
ATOM      2  C   LIG d   1       3.653  -0.399  -6.022  0.00  0.00     0.305 C 
ATOM      3  O   LIG d   1       4.792  -0.085  -6.305  0.00  0.00    -0.253 OA
ATOM      4  N   LIG d   1       2.732  -0.542  -6.996  0.00  0.00    -0.269 N 
ATOM      5  H   LIG d   1       2.388  -0.805  -4.505  0.00  0.00     0.151 HD
ATOM      6  H   LIG d   1       1.812  -0.743  -6.767  0.00  0.00     0.156 HD
ENDROOT
BRANCH   1   7
ATOM      7  C   LIG d   1       4.324  -0.512  -3.683  0.00  0.00     0.226 C 
BRANCH   7   8
ATOM      8  C   LIG d   1       5.622   0.044  -4.272  0.00  0.00    -0.017 C 
ATOM      9  H   LIG d   1       6.199  -0.770  -4.711  0.00  0.00     0.029 H 
ATOM     10  H   LIG d   1       5.386   0.779  -5.041  0.00  0.00     0.029 H 
BRANCH   8  11
ATOM     11  C   LIG d   1       6.441   0.709  -3.164  0.00  0.00    -0.063 C 
ATOM     12  H   LIG d   1       6.146   0.300  -2.198  0.00  0.00     0.023 H 
ATOM     13  H   LIG d   1       7.500   0.519  -3.331  0.00  0.00     0.023 H 
ATOM     14  H   LIG d   1       6.259   1.784  -3.174  0.00  0.00     0.023 H 
ENDBRANCH   8  11
ENDBRANCH   7   8
BRANCH   7  15
ATOM     15  C   LIG d   1       3.828   0.417  -2.573  0.00  0.00     0.419 C 
ATOM     16  F   LIG d   1       4.542   0.163  -1.398  0.00  0.00    -0.168 F 
ATOM     17  F   LIG d   1       4.023   1.748  -2.957  0.00  0.00    -0.168 F 
ATOM     18  F   LIG d   1       2.466   0.191  -2.350  0.00  0.00    -0.168 F 
ENDBRANCH   7  15
BRANCH   7  19
ATOM     19  C   LIG d   1       4.583  -1.905  -3.104  0.00  0.00     0.419 C 
ATOM     20  F   LIG d   1       5.827  -1.919  -2.464  0.00  0.00    -0.168 F 
ATOM     21  F   LIG d   1       3.580  -2.220  -2.181  0.00  0.00    -0.168 F 
ATOM     22  F   LIG d   1       4.578  -2.848  -4.138  0.00  0.00    -0.168 F 
ENDBRANCH   7  19
ENDBRANCH   1   7
BRANCH   4  23
ATOM     23  C   LIG d   1       3.105  -0.399  -8.337  0.00  0.00     0.038 A 
ATOM     24  C   LIG d   1       3.543  -1.501  -9.059  0.00  0.00    -0.029 A 
ATOM     25  C   LIG d   1       3.904  -1.359 -10.384  0.00  0.00    -0.054 A 
ATOM     26  C   LIG d   1       3.841  -0.117 -10.989  0.00  0.00    -0.050 A 
ATOM     27  H   LIG d   1       4.242  -2.216 -10.947  0.00  0.00     0.062 H 
ATOM     28  C   LIG d   1       3.411   0.983 -10.272  0.00  0.00    -0.057 A 
ATOM     29  C   LIG d   1       3.042   0.846  -8.949  0.00  0.00    -0.040 A 
ATOM     30  H   LIG d   1       3.362   1.952 -10.748  0.00  0.00     0.062 H 
ATOM     31  H   LIG d   1       2.706   1.707  -8.388  0.00  0.00     0.064 H 
BRANCH  24  32
ATOM     32  C   LIG d   1       3.618  -2.854  -8.398  0.00  0.00    -0.038 C 
ATOM     33  H   LIG d   1       4.064  -3.571  -9.087  0.00  0.00     0.028 H 
ATOM     34  H   LIG d   1       4.230  -2.785  -7.498  0.00  0.00     0.028 H 
ATOM     35  H   LIG d   1       2.615  -3.183  -8.129  0.00  0.00     0.028 H 
ENDBRANCH  24  32
BRANCH  26  36
ATOM     36  C   LIG d   1       4.243   0.036 -12.433  0.00  0.00    -0.040 C 
ATOM     37  H   LIG d   1       4.138  -0.921 -12.944  0.00  0.00     0.028 H 
ATOM     38  H   LIG d   1       3.601   0.775 -12.913  0.00  0.00     0.028 H 
ATOM     39  H   LIG d   1       5.280   0.366 -12.489  0.00  0.00     0.028 H 
ENDBRANCH  26  36
ENDBRANCH   4  23
TORSDOF 8
ENDMDL
MODEL 5
REMARK VINA RESULT:      -6.5      1.929      2.498
REMARK  8 active torsions:
REMARK  status: ('A' for Active; 'I' for Inactive)
REMARK    1  A    between atoms: C_1  and  C_2 
REMARK    2  A    between atoms: C_2  and  C_3 
REMARK    3  A    between atoms: C_3  and  C_4 
REMARK    4  A    between atoms: C_3  and  C_8 
REMARK    5  A    between atoms: C_3  and  N_12 
REMARK       I    between atoms: N_12  and  C_13 
REMARK       I    between atoms: C_13  and  N_15 
REMARK    6  A    between atoms: N_15  and  C_16 
REMARK    7  A    between atoms: C_19  and  C_23 
REMARK    8  A    between atoms: C_21  and  C_22 
ROOT
ATOM      1  N   LIG d   1       4.862   0.164  -4.941  0.00  0.00    -0.278 N 
ATOM      2  C   LIG d   1       4.663  -0.837  -5.822  0.00  0.00     0.305 C 
ATOM      3  O   LIG d   1       4.289  -1.925  -5.432  0.00  0.00    -0.253 OA
ATOM      4  N   LIG d   1       4.885  -0.632  -7.136  0.00  0.00    -0.269 N 
ATOM      5  H   LIG d   1       5.207   1.018  -5.246  0.00  0.00     0.151 HD
ATOM      6  H   LIG d   1       5.232   0.221  -7.441  0.00  0.00     0.156 HD
ENDROOT
BRANCH   1   7
ATOM      7  C   LIG d   1       4.558  -0.039  -3.523  0.00  0.00     0.226 C 
BRANCH   7   8
ATOM      8  C   LIG d   1       5.320  -1.261  -3.007  0.00  0.00    -0.017 C 
ATOM      9  H   LIG d   1       5.168  -1.357  -1.932  0.00  0.00     0.029 H 
ATOM     10  H   LIG d   1       4.952  -2.156  -3.507  0.00  0.00     0.029 H 
BRANCH   8  11
ATOM     11  C   LIG d   1       6.813  -1.091  -3.296  0.00  0.00    -0.063 C 
ATOM     12  H   LIG d   1       6.955  -0.271  -4.001  0.00  0.00     0.023 H 
ATOM     13  H   LIG d   1       7.340  -0.869  -2.369  0.00  0.00     0.023 H 
ATOM     14  H   LIG d   1       7.206  -2.012  -3.727  0.00  0.00     0.023 H 
ENDBRANCH   8  11
ENDBRANCH   7   8
BRANCH   7  15
ATOM     15  C   LIG d   1       4.981   1.199  -2.728  0.00  0.00     0.419 C 
ATOM     16  F   LIG d   1       4.999   0.895  -1.364  0.00  0.00    -0.168 F 
ATOM     17  F   LIG d   1       6.259   1.599  -3.134  0.00  0.00    -0.168 F 
ATOM     18  F   LIG d   1       4.072   2.236  -2.963  0.00  0.00    -0.168 F 
ENDBRANCH   7  15
BRANCH   7  19
ATOM     19  C   LIG d   1       3.054  -0.265  -3.350  0.00  0.00     0.419 C 
ATOM     20  F   LIG d   1       2.616   0.382  -2.190  0.00  0.00    -0.168 F 
ATOM     21  F   LIG d   1       2.374   0.251  -4.458  0.00  0.00    -0.168 F 
ATOM     22  F   LIG d   1       2.799  -1.637  -3.244  0.00  0.00    -0.168 F 
ENDBRANCH   7  19
ENDBRANCH   1   7
BRANCH   4  23
ATOM     23  C   LIG d   1       4.614  -1.649  -8.058  0.00  0.00     0.038 A 
ATOM     24  C   LIG d   1       3.414  -1.653  -8.756  0.00  0.00    -0.029 A 
ATOM     25  C   LIG d   1       3.151  -2.655  -9.670  0.00  0.00    -0.054 A 
ATOM     26  C   LIG d   1       4.078  -3.659  -9.881  0.00  0.00    -0.050 A 
ATOM     27  H   LIG d   1       2.220  -2.657 -10.216  0.00  0.00     0.062 H 
ATOM     28  C   LIG d   1       5.271  -3.661  -9.184  0.00  0.00    -0.057 A 
ATOM     29  C   LIG d   1       5.542  -2.659  -8.273  0.00  0.00    -0.040 A 
ATOM     30  H   LIG d   1       5.993  -4.447  -9.350  0.00  0.00     0.062 H 
ATOM     31  H   LIG d   1       6.475  -2.661  -7.727  0.00  0.00     0.064 H 
BRANCH  24  32
ATOM     32  C   LIG d   1       2.401  -0.562  -8.521  0.00  0.00    -0.038 C 
ATOM     33  H   LIG d   1       1.417  -0.903  -8.846  0.00  0.00     0.028 H 
ATOM     34  H   LIG d   1       2.369  -0.319  -7.459  0.00  0.00     0.028 H 
ATOM     35  H   LIG d   1       2.684   0.325  -9.088  0.00  0.00     0.028 H 
ENDBRANCH  24  32
BRANCH  26  36
ATOM     36  C   LIG d   1       3.786  -4.755 -10.874  0.00  0.00    -0.040 C 
ATOM     37  H   LIG d   1       4.222  -5.690 -10.523  0.00  0.00     0.028 H 
ATOM     38  H   LIG d   1       2.707  -4.873 -10.977  0.00  0.00     0.028 H 
ATOM     39  H   LIG d   1       4.216  -4.493 -11.841  0.00  0.00     0.028 H 
ENDBRANCH  26  36
ENDBRANCH   4  23
TORSDOF 8
ENDMDL
MODEL 6
REMARK VINA RESULT:      -6.5      3.782      6.137
REMARK  8 active torsions:
REMARK  status: ('A' for Active; 'I' for Inactive)
REMARK    1  A    between atoms: C_1  and  C_2 
REMARK    2  A    between atoms: C_2  and  C_3 
REMARK    3  A    between atoms: C_3  and  C_4 
REMARK    4  A    between atoms: C_3  and  C_8 
REMARK    5  A    between atoms: C_3  and  N_12 
REMARK       I    between atoms: N_12  and  C_13 
REMARK       I    between atoms: C_13  and  N_15 
REMARK    6  A    between atoms: N_15  and  C_16 
REMARK    7  A    between atoms: C_19  and  C_23 
REMARK    8  A    between atoms: C_21  and  C_22 
ROOT
ATOM      1  N   LIG d   1       6.269  -0.304  -3.056  0.00  0.00    -0.278 N 
ATOM      2  C   LIG d   1       6.992   0.620  -3.720  0.00  0.00     0.305 C 
ATOM      3  O   LIG d   1       6.440   1.403  -4.467  0.00  0.00    -0.253 OA
ATOM      4  N   LIG d   1       8.330   0.672  -3.557  0.00  0.00    -0.269 N 
ATOM      5  H   LIG d   1       6.715  -0.960  -2.498  0.00  0.00     0.151 HD
ATOM      6  H   LIG d   1       8.776   0.016  -3.000  0.00  0.00     0.156 HD
ENDROOT
BRANCH   1   7
ATOM      7  C   LIG d   1       4.810  -0.319  -3.181  0.00  0.00     0.226 C 
BRANCH   7   8
ATOM      8  C   LIG d   1       4.422  -0.157  -4.652  0.00  0.00    -0.017 C 
ATOM      9  H   LIG d   1       3.343  -0.021  -4.730  0.00  0.00     0.029 H 
ATOM     10  H   LIG d   1       4.929   0.713  -5.068  0.00  0.00     0.029 H 
BRANCH   8  11
ATOM     11  C   LIG d   1       4.835  -1.408  -5.429  0.00  0.00    -0.063 C 
ATOM     12  H   LIG d   1       5.882  -1.633  -5.226  0.00  0.00     0.023 H 
ATOM     13  H   LIG d   1       4.216  -2.249  -5.119  0.00  0.00     0.023 H 
ATOM     14  H   LIG d   1       4.702  -1.233  -6.497  0.00  0.00     0.023 H 
ENDBRANCH   8  11
ENDBRANCH   7   8
BRANCH   7  15
ATOM     15  C   LIG d   1       4.266  -1.648  -2.653  0.00  0.00     0.419 C 
ATOM     16  F   LIG d   1       4.380  -1.679  -1.260  0.00  0.00    -0.168 F 
ATOM     17  F   LIG d   1       2.921  -1.777  -3.014  0.00  0.00    -0.168 F 
ATOM     18  F   LIG d   1       5.000  -2.703  -3.205  0.00  0.00    -0.168 F 
ENDBRANCH   7  15
BRANCH   7  19
ATOM     19  C   LIG d   1       4.217   0.833  -2.367  0.00  0.00     0.419 C 
ATOM     20  F   LIG d   1       4.916   0.961  -1.162  0.00  0.00    -0.168 F 
ATOM     21  F   LIG d   1       4.322   2.023  -3.096  0.00  0.00    -0.168 F 
ATOM     22  F   LIG d   1       2.869   0.569  -2.099  0.00  0.00    -0.168 F 
ENDBRANCH   7  19
ENDBRANCH   1   7
BRANCH   4  23
ATOM     23  C   LIG d   1       9.073   1.674  -4.192  0.00  0.00     0.038 A 
ATOM     24  C   LIG d   1       9.735   1.400  -5.382  0.00  0.00    -0.029 A 
ATOM     25  C   LIG d   1      10.462   2.392  -6.010  0.00  0.00    -0.054 A 
ATOM     26  C   LIG d   1      10.540   3.654  -5.449  0.00  0.00    -0.050 A 
ATOM     27  H   LIG d   1      10.975   2.181  -6.937  0.00  0.00     0.062 H 
ATOM     28  C   LIG d   1       9.886   3.928  -4.263  0.00  0.00    -0.057 A 
ATOM     29  C   LIG d   1       9.153   2.943  -3.633  0.00  0.00    -0.040 A 
ATOM     30  H   LIG d   1       9.949   4.915  -3.827  0.00  0.00     0.062 H 
ATOM     31  H   LIG d   1       8.642   3.157  -2.705  0.00  0.00     0.064 H 
BRANCH  24  32
ATOM     32  C   LIG d   1       9.656   0.023  -5.989  0.00  0.00    -0.038 C 
ATOM     33  H   LIG d   1      10.295  -0.659  -5.429  0.00  0.00     0.028 H 
ATOM     34  H   LIG d   1       8.625  -0.331  -5.953  0.00  0.00     0.028 H 
ATOM     35  H   LIG d   1       9.988   0.064  -7.026  0.00  0.00     0.028 H 
ENDBRANCH  24  32
BRANCH  26  36
ATOM     36  C   LIG d   1      11.340   4.732  -6.134  0.00  0.00    -0.040 C 
ATOM     37  H   LIG d   1      11.285   4.595  -7.214  0.00  0.00     0.028 H 
ATOM     38  H   LIG d   1      10.933   5.709  -5.871  0.00  0.00     0.028 H 
ATOM     39  H   LIG d   1      12.379   4.673  -5.812  0.00  0.00     0.028 H 
ENDBRANCH  26  36
ENDBRANCH   4  23
TORSDOF 8
ENDMDL
MODEL 7
REMARK VINA RESULT:      -6.5      1.907      3.053
REMARK  8 active torsions:
REMARK  status: ('A' for Active; 'I' for Inactive)
REMARK    1  A    between atoms: C_1  and  C_2 
REMARK    2  A    between atoms: C_2  and  C_3 
REMARK    3  A    between atoms: C_3  and  C_4 
REMARK    4  A    between atoms: C_3  and  C_8 
REMARK    5  A    between atoms: C_3  and  N_12 
REMARK       I    between atoms: N_12  and  C_13 
REMARK       I    between atoms: C_13  and  N_15 
REMARK    6  A    between atoms: N_15  and  C_16 
REMARK    7  A    between atoms: C_19  and  C_23 
REMARK    8  A    between atoms: C_21  and  C_22 
ROOT
ATOM      1  N   LIG d   1       5.613   0.132  -4.746  0.00  0.00    -0.278 N 
ATOM      2  C   LIG d   1       5.200  -0.031  -6.018  0.00  0.00     0.305 C 
ATOM      3  O   LIG d   1       4.098  -0.491  -6.246  0.00  0.00    -0.253 OA
ATOM      4  N   LIG d   1       6.011   0.311  -7.040  0.00  0.00    -0.269 N 
ATOM      5  H   LIG d   1       6.510   0.454  -4.565  0.00  0.00     0.151 HD
ATOM      6  H   LIG d   1       6.908   0.631  -6.859  0.00  0.00     0.156 HD
ENDROOT
BRANCH   1   7
ATOM      7  C   LIG d   1       4.708  -0.177  -3.637  0.00  0.00     0.226 C 
BRANCH   7   8
ATOM      8  C   LIG d   1       3.269  -0.240  -4.154  0.00  0.00    -0.017 C 
ATOM      9  H   LIG d   1       2.938   0.762  -4.428  0.00  0.00     0.029 H 
ATOM     10  H   LIG d   1       3.226  -0.889  -5.028  0.00  0.00     0.029 H 
BRANCH   8  11
ATOM     11  C   LIG d   1       2.357  -0.796  -3.059  0.00  0.00    -0.063 C 
ATOM     12  H   LIG d   1       1.492  -1.276  -3.516  0.00  0.00     0.023 H 
ATOM     13  H   LIG d   1       2.906  -1.525  -2.465  0.00  0.00     0.023 H 
ATOM     14  H   LIG d   1       2.022   0.019  -2.417  0.00  0.00     0.023 H 
ENDBRANCH   8  11
ENDBRANCH   7   8
BRANCH   7  15
ATOM     15  C   LIG d   1       5.090  -1.528  -3.028  0.00  0.00     0.419 C 
ATOM     16  F   LIG d   1       4.736  -2.554  -3.909  0.00  0.00    -0.168 F 
ATOM     17  F   LIG d   1       6.470  -1.563  -2.801  0.00  0.00    -0.168 F 
ATOM     18  F   LIG d   1       4.414  -1.700  -1.815  0.00  0.00    -0.168 F 
ENDBRANCH   7  15
BRANCH   7  19
ATOM     19  C   LIG d   1       4.818   0.913  -2.569  0.00  0.00     0.419 C 
ATOM     20  F   LIG d   1       4.636   0.345  -1.303  0.00  0.00    -0.168 F 
ATOM     21  F   LIG d   1       6.083   1.507  -2.637  0.00  0.00    -0.168 F 
ATOM     22  F   LIG d   1       3.835   1.884  -2.790  0.00  0.00    -0.168 F 
ENDBRANCH   7  19
ENDBRANCH   1   7
BRANCH   4  23
ATOM     23  C   LIG d   1       5.557   0.206  -8.359  0.00  0.00     0.038 A 
ATOM     24  C   LIG d   1       5.837  -0.933  -9.102  0.00  0.00    -0.029 A 
ATOM     25  C   LIG d   1       5.382  -1.039 -10.402  0.00  0.00    -0.054 A 
ATOM     26  C   LIG d   1       4.658  -0.005 -10.967  0.00  0.00    -0.050 A 
ATOM     27  H   LIG d   1       5.597  -1.925 -10.979  0.00  0.00     0.062 H 
ATOM     28  C   LIG d   1       4.382   1.133 -10.232  0.00  0.00    -0.057 A 
ATOM     29  C   LIG d   1       4.828   1.241  -8.930  0.00  0.00    -0.040 A 
ATOM     30  H   LIG d   1       3.816   1.939 -10.676  0.00  0.00     0.062 H 
ATOM     31  H   LIG d   1       4.613   2.131  -8.356  0.00  0.00     0.064 H 
BRANCH  24  32
ATOM     32  C   LIG d   1       6.633  -2.057  -8.488  0.00  0.00    -0.038 C 
ATOM     33  H   LIG d   1       7.412  -1.644  -7.847  0.00  0.00     0.028 H 
ATOM     34  H   LIG d   1       5.971  -2.689  -7.894  0.00  0.00     0.028 H 
ATOM     35  H   LIG d   1       7.089  -2.653  -9.278  0.00  0.00     0.028 H 
ENDBRANCH  24  32
BRANCH  26  36
ATOM     36  C   LIG d   1       4.169  -0.119 -12.387  0.00  0.00    -0.040 C 
ATOM     37  H   LIG d   1       4.693  -0.934 -12.888  0.00  0.00     0.028 H 
ATOM     38  H   LIG d   1       3.098  -0.322 -12.388  0.00  0.00     0.028 H 
ATOM     39  H   LIG d   1       4.362   0.815 -12.915  0.00  0.00     0.028 H 
ENDBRANCH  26  36
ENDBRANCH   4  23
TORSDOF 8
ENDMDL
MODEL 8
REMARK VINA RESULT:      -6.4      3.763      4.664
REMARK  8 active torsions:
REMARK  status: ('A' for Active; 'I' for Inactive)
REMARK    1  A    between atoms: C_1  and  C_2 
REMARK    2  A    between atoms: C_2  and  C_3 
REMARK    3  A    between atoms: C_3  and  C_4 
REMARK    4  A    between atoms: C_3  and  C_8 
REMARK    5  A    between atoms: C_3  and  N_12 
REMARK       I    between atoms: N_12  and  C_13 
REMARK       I    between atoms: C_13  and  N_15 
REMARK    6  A    between atoms: N_15  and  C_16 
REMARK    7  A    between atoms: C_19  and  C_23 
REMARK    8  A    between atoms: C_21  and  C_22 
ROOT
ATOM      1  N   LIG d   1       3.632  -1.965  -4.458  0.00  0.00    -0.278 N 
ATOM      2  C   LIG d   1       4.522  -2.753  -5.094  0.00  0.00     0.305 C 
ATOM      3  O   LIG d   1       5.714  -2.569  -4.944  0.00  0.00    -0.253 OA
ATOM      4  N   LIG d   1       4.089  -3.742  -5.902  0.00  0.00    -0.269 N 
ATOM      5  H   LIG d   1       2.682  -2.080  -4.616  0.00  0.00     0.151 HD
ATOM      6  H   LIG d   1       3.140  -3.857  -6.061  0.00  0.00     0.156 HD
ENDROOT
BRANCH   1   7
ATOM      7  C   LIG d   1       4.101  -0.933  -3.530  0.00  0.00     0.226 C 
BRANCH   7   8
ATOM      8  C   LIG d   1       5.305  -0.210  -4.136  0.00  0.00    -0.017 C 
ATOM      9  H   LIG d   1       6.099  -0.930  -4.336  0.00  0.00     0.029 H 
ATOM     10  H   LIG d   1       5.009   0.271  -5.067  0.00  0.00     0.029 H 
BRANCH   8  11
ATOM     11  C   LIG d   1       5.812   0.848  -3.154  0.00  0.00    -0.063 C 
ATOM     12  H   LIG d   1       6.319   0.358  -2.322  0.00  0.00     0.023 H 
ATOM     13  H   LIG d   1       6.509   1.512  -3.663  0.00  0.00     0.023 H 
ATOM     14  H   LIG d   1       4.969   1.426  -2.775  0.00  0.00     0.023 H 
ENDBRANCH   8  11
ENDBRANCH   7   8
BRANCH   7  15
ATOM     15  C   LIG d   1       2.977   0.073  -3.275  0.00  0.00     0.419 C 
ATOM     16  F   LIG d   1       2.753   0.825  -4.432  0.00  0.00    -0.168 F 
ATOM     17  F   LIG d   1       1.807  -0.613  -2.931  0.00  0.00    -0.168 F 
ATOM     18  F   LIG d   1       3.343   0.925  -2.228  0.00  0.00    -0.168 F 
ENDBRANCH   7  15
BRANCH   7  19
ATOM     19  C   LIG d   1       4.511  -1.585  -2.207  0.00  0.00     0.419 C 
ATOM     20  F   LIG d   1       5.847  -1.992  -2.283  0.00  0.00    -0.168 F 
ATOM     21  F   LIG d   1       4.361  -0.663  -1.166  0.00  0.00    -0.168 F 
ATOM     22  F   LIG d   1       3.697  -2.698  -1.965  0.00  0.00    -0.168 F 
ENDBRANCH   7  19
ENDBRANCH   1   7
BRANCH   4  23
ATOM     23  C   LIG d   1       5.010  -4.603  -6.508  0.00  0.00     0.038 A 
ATOM     24  C   LIG d   1       5.396  -4.393  -7.825  0.00  0.00    -0.029 A 
ATOM     25  C   LIG d   1       6.311  -5.240  -8.420  0.00  0.00    -0.054 A 
ATOM     26  C   LIG d   1       6.834  -6.304  -7.707  0.00  0.00    -0.050 A 
ATOM     27  H   LIG d   1       6.613  -5.076  -9.443  0.00  0.00     0.062 H 
ATOM     28  C   LIG d   1       6.448  -6.519  -6.398  0.00  0.00    -0.057 A 
ATOM     29  C   LIG d   1       5.539  -5.672  -5.796  0.00  0.00    -0.040 A 
ATOM     30  H   LIG d   1       6.858  -7.351  -5.844  0.00  0.00     0.062 H 
ATOM     31  H   LIG d   1       5.237  -5.841  -4.772  0.00  0.00     0.064 H 
BRANCH  24  32
ATOM     32  C   LIG d   1       4.821  -3.238  -8.604  0.00  0.00    -0.038 C 
ATOM     33  H   LIG d   1       3.802  -3.045  -8.269  0.00  0.00     0.028 H 
ATOM     34  H   LIG d   1       5.432  -2.349  -8.440  0.00  0.00     0.028 H 
ATOM     35  H   LIG d   1       4.815  -3.482  -9.666  0.00  0.00     0.028 H 
ENDBRANCH  24  32
BRANCH  26  36
ATOM     36  C   LIG d   1       7.826  -7.230  -8.361  0.00  0.00    -0.040 C 
ATOM     37  H   LIG d   1       8.826  -7.017  -7.984  0.00  0.00     0.028 H 
ATOM     38  H   LIG d   1       7.565  -8.264  -8.132  0.00  0.00     0.028 H 
ATOM     39  H   LIG d   1       7.805  -7.082  -9.441  0.00  0.00     0.028 H 
ENDBRANCH  26  36
ENDBRANCH   4  23
TORSDOF 8
ENDMDL
MODEL 9
REMARK VINA RESULT:      -6.4      1.359      2.480
REMARK  8 active torsions:
REMARK  status: ('A' for Active; 'I' for Inactive)
REMARK    1  A    between atoms: C_1  and  C_2 
REMARK    2  A    between atoms: C_2  and  C_3 
REMARK    3  A    between atoms: C_3  and  C_4 
REMARK    4  A    between atoms: C_3  and  C_8 
REMARK    5  A    between atoms: C_3  and  N_12 
REMARK       I    between atoms: N_12  and  C_13 
REMARK       I    between atoms: C_13  and  N_15 
REMARK    6  A    between atoms: N_15  and  C_16 
REMARK    7  A    between atoms: C_19  and  C_23 
REMARK    8  A    between atoms: C_21  and  C_22 
ROOT
ATOM      1  N   LIG d   1       4.230   0.320  -4.529  0.00  0.00    -0.278 N 
ATOM      2  C   LIG d   1       4.038  -0.085  -5.800  0.00  0.00     0.305 C 
ATOM      3  O   LIG d   1       4.320  -1.222  -6.126  0.00  0.00    -0.253 OA
ATOM      4  N   LIG d   1       3.537   0.772  -6.713  0.00  0.00    -0.269 N 
ATOM      5  H   LIG d   1       4.050   1.241  -4.281  0.00  0.00     0.151 HD
ATOM      6  H   LIG d   1       3.359   1.693  -6.466  0.00  0.00     0.156 HD
ENDROOT
BRANCH   1   7
ATOM      7  C   LIG d   1       4.711  -0.629  -3.523  0.00  0.00     0.226 C 
BRANCH   7   8
ATOM      8  C   LIG d   1       4.808   0.071  -2.166  0.00  0.00    -0.017 C 
ATOM      9  H   LIG d   1       4.485  -0.613  -1.381  0.00  0.00     0.029 H 
ATOM     10  H   LIG d   1       5.839   0.372  -1.986  0.00  0.00     0.029 H 
BRANCH   8  11
ATOM     11  C   LIG d   1       3.908   1.308  -2.165  0.00  0.00    -0.063 C 
ATOM     12  H   LIG d   1       4.411   2.123  -1.646  0.00  0.00     0.023 H 
ATOM     13  H   LIG d   1       3.698   1.605  -3.192  0.00  0.00     0.023 H 
ATOM     14  H   LIG d   1       2.972   1.076  -1.656  0.00  0.00     0.023 H 
ENDBRANCH   8  11
ENDBRANCH   7   8
BRANCH   7  15
ATOM     15  C   LIG d   1       3.737  -1.804  -3.423  0.00  0.00     0.419 C 
ATOM     16  F   LIG d   1       2.428  -1.342  -3.594  0.00  0.00    -0.168 F 
ATOM     17  F   LIG d   1       4.033  -2.743  -4.417  0.00  0.00    -0.168 F 
ATOM     18  F   LIG d   1       3.858  -2.404  -2.165  0.00  0.00    -0.168 F 
ENDBRANCH   7  15
BRANCH   7  19
ATOM     19  C   LIG d   1       6.093  -1.147  -3.930  0.00  0.00     0.419 C 
ATOM     20  F   LIG d   1       6.654  -0.282  -4.876  0.00  0.00    -0.168 F 
ATOM     21  F   LIG d   1       6.919  -1.206  -2.803  0.00  0.00    -0.168 F 
ATOM     22  F   LIG d   1       5.967  -2.426  -4.484  0.00  0.00    -0.168 F 
ENDBRANCH   7  19
ENDBRANCH   1   7
BRANCH   4  23
ATOM     23  C   LIG d   1       3.274   0.333  -8.015  0.00  0.00     0.038 A 
ATOM     24  C   LIG d   1       4.138   0.666  -9.049  0.00  0.00    -0.029 A 
ATOM     25  C   LIG d   1       3.880   0.225 -10.333  0.00  0.00    -0.054 A 
ATOM     26  C   LIG d   1       2.755  -0.538 -10.589  0.00  0.00    -0.050 A 
ATOM     27  H   LIG d   1       4.553   0.481 -11.137  0.00  0.00     0.062 H 
ATOM     28  C   LIG d   1       1.890  -0.866  -9.563  0.00  0.00    -0.057 A 
ATOM     29  C   LIG d   1       2.146  -0.434  -8.277  0.00  0.00    -0.040 A 
ATOM     30  H   LIG d   1       1.012  -1.462  -9.766  0.00  0.00     0.062 H 
ATOM     31  H   LIG d   1       1.469  -0.690  -7.474  0.00  0.00     0.064 H 
BRANCH  24  32
ATOM     32  C   LIG d   1       5.360   1.502  -8.771  0.00  0.00    -0.038 C 
ATOM     33  H   LIG d   1       5.885   1.102  -7.903  0.00  0.00     0.028 H 
ATOM     34  H   LIG d   1       6.022   1.480  -9.637  0.00  0.00     0.028 H 
ATOM     35  H   LIG d   1       5.059   2.531  -8.572  0.00  0.00     0.028 H 
ENDBRANCH  24  32
BRANCH  26  36
ATOM     36  C   LIG d   1       2.473  -1.011 -11.992  0.00  0.00    -0.040 C 
ATOM     37  H   LIG d   1       1.691  -0.393 -12.434  0.00  0.00     0.028 H 
ATOM     38  H   LIG d   1       3.379  -0.933 -12.592  0.00  0.00     0.028 H 
ATOM     39  H   LIG d   1       2.143  -2.050 -11.965  0.00  0.00     0.028 H 
ENDBRANCH  26  36
ENDBRANCH   4  23
TORSDOF 8
ENDMDL
MODEL 10
REMARK VINA RESULT:      -6.2      3.824      6.303
REMARK  8 active torsions:
REMARK  status: ('A' for Active; 'I' for Inactive)
REMARK    1  A    between atoms: C_1  and  C_2 
REMARK    2  A    between atoms: C_2  and  C_3 
REMARK    3  A    between atoms: C_3  and  C_4 
REMARK    4  A    between atoms: C_3  and  C_8 
REMARK    5  A    between atoms: C_3  and  N_12 
REMARK       I    between atoms: N_12  and  C_13 
REMARK       I    between atoms: C_13  and  N_15 
REMARK    6  A    between atoms: N_15  and  C_16 
REMARK    7  A    between atoms: C_19  and  C_23 
REMARK    8  A    between atoms: C_21  and  C_22 
ROOT
ATOM      1  N   LIG d   1       5.245  -1.410  -4.453  0.00  0.00    -0.278 N 
ATOM      2  C   LIG d   1       6.529  -1.671  -4.136  0.00  0.00     0.305 C 
ATOM      3  O   LIG d   1       7.016  -1.195  -3.129  0.00  0.00    -0.253 OA
ATOM      4  N   LIG d   1       7.276  -2.456  -4.940  0.00  0.00    -0.269 N 
ATOM      5  H   LIG d   1       4.872  -1.750  -5.282  0.00  0.00     0.151 HD
ATOM      6  H   LIG d   1       6.903  -2.794  -5.768  0.00  0.00     0.156 HD
ENDROOT
BRANCH   1   7
ATOM      7  C   LIG d   1       4.415  -0.613  -3.547  0.00  0.00     0.226 C 
BRANCH   7   8
ATOM      8  C   LIG d   1       5.281   0.445  -2.861  0.00  0.00    -0.017 C 
ATOM      9  H   LIG d   1       6.190  -0.020  -2.481  0.00  0.00     0.029 H 
ATOM     10  H   LIG d   1       5.542   1.222  -3.578  0.00  0.00     0.029 H 
BRANCH   8  11
ATOM     11  C   LIG d   1       4.502   1.065  -1.698  0.00  0.00    -0.063 C 
ATOM     12  H   LIG d   1       4.804   0.590  -0.765  0.00  0.00     0.023 H 
ATOM     13  H   LIG d   1       4.712   2.132  -1.648  0.00  0.00     0.023 H 
ATOM     14  H   LIG d   1       3.434   0.912  -1.854  0.00  0.00     0.023 H 
ENDBRANCH   8  11
ENDBRANCH   7   8
BRANCH   7  15
ATOM     15  C   LIG d   1       3.305   0.075  -4.345  0.00  0.00     0.419 C 
ATOM     16  F   LIG d   1       3.103   1.365  -3.847  0.00  0.00    -0.168 F 
ATOM     17  F   LIG d   1       3.676   0.148  -5.692  0.00  0.00    -0.168 F 
ATOM     18  F   LIG d   1       2.122  -0.661  -4.227  0.00  0.00    -0.168 F 
ENDBRANCH   7  15
BRANCH   7  19
ATOM     19  C   LIG d   1       3.791  -1.526  -2.490  0.00  0.00     0.419 C 
ATOM     20  F   LIG d   1       4.541  -1.453  -1.311  0.00  0.00    -0.168 F 
ATOM     21  F   LIG d   1       2.479  -1.117  -2.235  0.00  0.00    -0.168 F 
ATOM     22  F   LIG d   1       3.786  -2.845  -2.958  0.00  0.00    -0.168 F 
ENDBRANCH   7  19
ENDBRANCH   1   7
BRANCH   4  23
ATOM     23  C   LIG d   1       8.587  -2.781  -4.576  0.00  0.00     0.038 A 
ATOM     24  C   LIG d   1       9.658  -2.142  -5.187  0.00  0.00    -0.029 A 
ATOM     25  C   LIG d   1      10.951  -2.460  -4.822  0.00  0.00    -0.054 A 
ATOM     26  C   LIG d   1      11.180  -3.424  -3.857  0.00  0.00    -0.050 A 
ATOM     27  H   LIG d   1      11.783  -1.961  -5.294  0.00  0.00     0.062 H 
ATOM     28  C   LIG d   1      10.117  -4.066  -3.251  0.00  0.00    -0.057 A 
ATOM     29  C   LIG d   1       8.822  -3.748  -3.607  0.00  0.00    -0.040 A 
ATOM     30  H   LIG d   1      10.299  -4.819  -2.498  0.00  0.00     0.062 H 
ATOM     31  H   LIG d   1       7.990  -4.251  -3.134  0.00  0.00     0.064 H 
BRANCH  24  32
ATOM     32  C   LIG d   1       9.408  -1.096  -6.243  0.00  0.00    -0.038 C 
ATOM     33  H   LIG d   1      10.279  -0.446  -6.324  0.00  0.00     0.028 H 
ATOM     34  H   LIG d   1       9.227  -1.583  -7.202  0.00  0.00     0.028 H 
ATOM     35  H   LIG d   1       8.536  -0.503  -5.969  0.00  0.00     0.028 H 
ENDBRANCH  24  32
BRANCH  26  36
ATOM     36  C   LIG d   1      12.592  -3.774  -3.466  0.00  0.00    -0.040 C 
ATOM     37  H   LIG d   1      13.290  -3.280  -4.142  0.00  0.00     0.028 H 
ATOM     38  H   LIG d   1      12.781  -3.442  -2.445  0.00  0.00     0.028 H 
ATOM     39  H   LIG d   1      12.730  -4.854  -3.527  0.00  0.00     0.028 H 
ENDBRANCH  26  36
ENDBRANCH   4  23
TORSDOF 8
ENDMDL
