MODEL 1
REMARK VINA RESULT:      -7.0      0.000      0.000
REMARK  5 active torsions:
REMARK  status: ('A' for Active; 'I' for Inactive)
REMARK    1  A    between atoms: C_4  and  N_7 
REMARK       I    between atoms: N_7  and  C_8 
REMARK       I    between atoms: C_8  and  N_10 
REMARK    2  A    between atoms: N_10  and  C_11 
REMARK    3  A    between atoms: C_20  and  N_25 
REMARK    4  A    between atoms: C_22  and  O_24 
REMARK    5  A    between atoms: C_28  and  C_31 
REMARK       I    between atoms: C_31  and  N_33 
ROOT
ATOM      1  C   LIG d   1       2.964  -0.616  -9.326  0.00  0.00     0.084 C 
ATOM      2  H   LIG d   1       3.039   0.479  -9.236  0.00  0.00     0.055 H 
ATOM      3  C   LIG d   1       1.651  -1.033 -10.009  0.00  0.00     0.106 C 
ATOM      4  H   LIG d   1       0.786  -0.541  -9.542  0.00  0.00     0.064 H 
ATOM      5  C   LIG d   1       1.815  -0.798 -11.528  0.00  0.00     0.079 C 
ATOM      6  O   LIG d   1       2.348  -2.050 -12.054  0.00  0.00    -0.344 OA
ATOM      7  C   LIG d   1       2.515  -2.915 -10.916  0.00  0.00     0.206 C 
ATOM      8  H   LIG d   1       2.317  -3.957 -11.209  0.00  0.00     0.097 H 
ATOM      9  O   LIG d   1       1.564  -2.477  -9.920  0.00  0.00    -0.339 OA
ATOM     10  C   LIG d   1       3.922  -2.689 -10.343  0.00  0.00     0.059 C 
ATOM     11  H   LIG d   1       4.693  -3.107 -11.007  0.00  0.00     0.093 H 
ATOM     12  C   LIG d   1       4.136  -1.186 -10.133  0.00  0.00     0.123 C 
ATOM     13  H   LIG d   1       5.099  -0.981  -9.643  0.00  0.00     0.067 H 
ATOM     14  H   LIG d   1       0.836  -0.558 -11.970  0.00  0.00     0.059 H 
ATOM     15  H   LIG d   1       2.509   0.040 -11.697  0.00  0.00     0.059 H 
ENDROOT
BRANCH   1  16
ATOM     16  N   LIG d   1       3.000  -1.148  -7.962  0.00  0.00    -0.291 N 
ATOM     17  C   LIG d   1       3.486  -0.394  -6.956  0.00  0.00     0.300 C 
ATOM     18  N   LIG d   1       3.519  -0.885  -5.701  0.00  0.00    -0.297 N 
ATOM     19  O   LIG d   1       3.895   0.728  -7.181  0.00  0.00    -0.253 OA
ATOM     20  H   LIG d   1       3.149  -1.901  -5.498  0.00  0.00     0.150 HD
ATOM     21  H   LIG d   1       2.630  -2.165  -7.759  0.00  0.00     0.151 HD
BRANCH  18  22
ATOM     22  C   LIG d   1       4.047  -0.065  -4.608  0.00  0.00     0.025 C 
ATOM     23  C   LIG d   1       2.935   0.209  -3.593  0.00  0.00    -0.035 C 
ATOM     24  C   LIG d   1       3.486   1.066  -2.451  0.00  0.00    -0.051 C 
ATOM     25  H   LIG d   1       2.564  -0.744  -3.190  0.00  0.00     0.028 H 
ATOM     26  H   LIG d   1       2.110   0.744  -4.088  0.00  0.00     0.028 H 
ATOM     27  C   LIG d   1       4.633   0.322  -1.764  0.00  0.00    -0.053 C 
ATOM     28  H   LIG d   1       2.688   1.262  -1.721  0.00  0.00     0.027 H 
ATOM     29  H   LIG d   1       3.858   2.020  -2.855  0.00  0.00     0.027 H 
ATOM     30  C   LIG d   1       5.745   0.048  -2.779  0.00  0.00    -0.051 C 
ATOM     31  H   LIG d   1       4.262  -0.631  -1.360  0.00  0.00     0.026 H 
ATOM     32  H   LIG d   1       5.030   0.938  -0.944  0.00  0.00     0.026 H 
ATOM     33  C   LIG d   1       5.193  -0.808  -3.921  0.00  0.00    -0.035 C 
ATOM     34  H   LIG d   1       6.116   1.002  -3.183  0.00  0.00     0.027 H 
ATOM     35  H   LIG d   1       6.570  -0.487  -2.285  0.00  0.00     0.027 H 
ATOM     36  H   LIG d   1       4.823  -1.761  -3.517  0.00  0.00     0.028 H 
ATOM     37  H   LIG d   1       5.993  -1.005  -4.650  0.00  0.00     0.028 H 
ATOM     38  H   LIG d   1       4.406   0.875  -5.052  0.00  0.00     0.050 H 
ENDBRANCH  18  22
ENDBRANCH   1  16
BRANCH  12  39
ATOM     39  O   LIG d   1       4.204  -0.532 -11.402  0.00  0.00    -0.384 OA
ATOM     40  H   LIG d   1       5.071   0.098 -11.650  0.00  0.00     0.210 HD
ENDBRANCH  12  39
BRANCH  10  41
ATOM     41  N   LIG d   1       4.048  -3.387  -9.056  0.00  0.00     0.243 N 
ATOM     42  C   LIG d   1       3.581  -4.776  -9.163  0.00  0.00    -0.031 C 
ATOM     43  C   LIG d   1       3.590  -5.426  -7.779  0.00  0.00    -0.001 C 
ATOM     44  H   LIG d   1       2.558  -4.788  -9.567  0.00  0.00     0.082 H 
ATOM     45  H   LIG d   1       4.247  -5.336  -9.836  0.00  0.00     0.082 H 
ATOM     46  C   LIG d   1       5.011  -5.389  -7.210  0.00  0.00     0.045 C 
ATOM     47  H   LIG d   1       3.254  -6.471  -7.860  0.00  0.00     0.032 H 
ATOM     48  H   LIG d   1       2.912  -4.876  -7.108  0.00  0.00     0.032 H 
ATOM     49  C   LIG d   1       5.491  -3.937  -7.154  0.00  0.00    -0.001 C 
ATOM     50  H   LIG d   1       5.686  -5.986  -7.842  0.00  0.00     0.040 H 
ATOM     51  C   LIG d   1       5.429  -3.329  -8.557  0.00  0.00    -0.031 C 
ATOM     52  H   LIG d   1       6.529  -3.905  -6.788  0.00  0.00     0.032 H 
ATOM     53  H   LIG d   1       4.846  -3.360  -6.476  0.00  0.00     0.032 H 
ATOM     54  H   LIG d   1       6.086  -3.896  -9.233  0.00  0.00     0.082 H 
ATOM     55  H   LIG d   1       5.760  -2.281  -8.518  0.00  0.00     0.082 H 
ATOM     56  H   LIG d   1       3.405  -2.873  -8.326  0.00  0.00     0.204 HD
BRANCH  46  57
ATOM     57  C   LIG d   1       5.014  -5.976  -5.822  0.00  0.00     0.214 C 
ATOM     58  O   LIG d   1       4.100  -5.739  -5.061  0.00  0.00    -0.276 OA
ATOM     59  N   LIG d   1       6.034  -6.765  -5.427  0.00  0.00    -0.329 N 
ATOM     60  H   LIG d   1       6.036  -7.194  -4.414  0.00  0.00     0.145 HD
ATOM     61  H   LIG d   1       6.862  -6.980  -6.118  0.00  0.00     0.145 HD
ENDBRANCH  46  57
ENDBRANCH  10  41
TORSDOF 5
ENDMDL
MODEL 2
REMARK VINA RESULT:      -6.7      3.565      5.287
REMARK  5 active torsions:
REMARK  status: ('A' for Active; 'I' for Inactive)
REMARK    1  A    between atoms: C_4  and  N_7 
REMARK       I    between atoms: N_7  and  C_8 
REMARK       I    between atoms: C_8  and  N_10 
REMARK    2  A    between atoms: N_10  and  C_11 
REMARK    3  A    between atoms: C_20  and  N_25 
REMARK    4  A    between atoms: C_22  and  O_24 
REMARK    5  A    between atoms: C_28  and  C_31 
REMARK       I    between atoms: C_31  and  N_33 
ROOT
ATOM      1  C   LIG d   1       5.761   0.728  -8.786  0.00  0.00     0.084 C 
ATOM      2  H   LIG d   1       6.699   0.587  -9.344  0.00  0.00     0.055 H 
ATOM      3  C   LIG d   1       4.907   1.849  -9.402  0.00  0.00     0.106 C 
ATOM      4  H   LIG d   1       5.500   2.761  -9.561  0.00  0.00     0.064 H 
ATOM      5  C   LIG d   1       4.214   1.275 -10.660  0.00  0.00     0.079 C 
ATOM      6  O   LIG d   1       2.946   0.732 -10.184  0.00  0.00    -0.344 OA
ATOM      7  C   LIG d   1       2.938   0.941  -8.760  0.00  0.00     0.206 C 
ATOM      8  H   LIG d   1       1.911   1.144  -8.420  0.00  0.00     0.097 H 
ATOM      9  O   LIG d   1       3.792   2.079  -8.505  0.00  0.00    -0.339 OA
ATOM     10  C   LIG d   1       3.583  -0.281  -8.091  0.00  0.00     0.059 C 
ATOM     11  H   LIG d   1       2.924  -1.160  -8.152  0.00  0.00     0.093 H 
ATOM     12  C   LIG d   1       4.932  -0.560  -8.763  0.00  0.00     0.123 C 
ATOM     13  H   LIG d   1       5.471  -1.376  -8.259  0.00  0.00     0.067 H 
ATOM     14  H   LIG d   1       4.059   2.081 -11.393  0.00  0.00     0.059 H 
ATOM     15  H   LIG d   1       4.848   0.492 -11.104  0.00  0.00     0.059 H 
ENDROOT
BRANCH   1  16
ATOM     16  N   LIG d   1       6.142   1.095  -7.420  0.00  0.00    -0.291 N 
ATOM     17  C   LIG d   1       7.428   1.372  -7.130  0.00  0.00     0.300 C 
ATOM     18  N   LIG d   1       7.778   1.708  -5.872  0.00  0.00    -0.297 N 
ATOM     19  O   LIG d   1       8.273   1.316  -8.002  0.00  0.00    -0.253 OA
ATOM     20  H   LIG d   1       7.013   1.757  -5.083  0.00  0.00     0.150 HD
ATOM     21  H   LIG d   1       5.376   1.144  -6.631  0.00  0.00     0.151 HD
BRANCH  18  22
ATOM     22  C   LIG d   1       9.176   2.008  -5.556  0.00  0.00     0.025 C 
ATOM     23  C   LIG d   1       9.239   3.222  -4.626  0.00  0.00    -0.035 C 
ATOM     24  C   LIG d   1      10.700   3.536  -4.296  0.00  0.00    -0.051 C 
ATOM     25  H   LIG d   1       8.694   3.000  -3.697  0.00  0.00     0.028 H 
ATOM     26  H   LIG d   1       8.781   4.090  -5.123  0.00  0.00     0.028 H 
ATOM     27  C   LIG d   1      11.338   2.329  -3.605  0.00  0.00    -0.053 C 
ATOM     28  H   LIG d   1      10.746   4.408  -3.627  0.00  0.00     0.027 H 
ATOM     29  H   LIG d   1      11.247   3.758  -5.226  0.00  0.00     0.027 H 
ATOM     30  C   LIG d   1      11.274   1.116  -4.536  0.00  0.00    -0.051 C 
ATOM     31  H   LIG d   1      10.792   2.108  -2.676  0.00  0.00     0.026 H 
ATOM     32  H   LIG d   1      12.388   2.555  -3.369  0.00  0.00     0.026 H 
ATOM     33  C   LIG d   1       9.814   0.803  -4.865  0.00  0.00    -0.035 C 
ATOM     34  H   LIG d   1      11.821   1.337  -5.465  0.00  0.00     0.027 H 
ATOM     35  H   LIG d   1      11.733   0.248  -4.039  0.00  0.00     0.027 H 
ATOM     36  H   LIG d   1       9.269   0.581  -3.936  0.00  0.00     0.028 H 
ATOM     37  H   LIG d   1       9.769  -0.070  -5.534  0.00  0.00     0.028 H 
ATOM     38  H   LIG d   1       9.684   2.224  -6.508  0.00  0.00     0.050 H 
ENDBRANCH  18  22
ENDBRANCH   1  16
BRANCH  12  39
ATOM     39  O   LIG d   1       4.714  -1.012 -10.101  0.00  0.00    -0.384 OA
ATOM     40  H   LIG d   1       5.565  -1.128 -10.788  0.00  0.00     0.210 HD
ENDBRANCH  12  39
BRANCH  10  41
ATOM     41  N   LIG d   1       3.792  -0.008  -6.662  0.00  0.00     0.243 N 
ATOM     42  C   LIG d   1       2.537   0.397  -6.015  0.00  0.00    -0.031 C 
ATOM     43  C   LIG d   1       2.819   0.813  -4.570  0.00  0.00    -0.001 C 
ATOM     44  H   LIG d   1       2.100   1.246  -6.561  0.00  0.00     0.082 H 
ATOM     45  H   LIG d   1       1.832  -0.446  -6.023  0.00  0.00     0.082 H 
ATOM     46  C   LIG d   1       3.447  -0.363  -3.817  0.00  0.00     0.045 C 
ATOM     47  H   LIG d   1       1.878   1.103  -4.079  0.00  0.00     0.032 H 
ATOM     48  H   LIG d   1       3.514   1.667  -4.561  0.00  0.00     0.032 H 
ATOM     49  C   LIG d   1       4.725  -0.796  -4.539  0.00  0.00    -0.001 C 
ATOM     50  H   LIG d   1       2.737  -1.203  -3.770  0.00  0.00     0.040 H 
ATOM     51  C   LIG d   1       4.389  -1.167  -5.986  0.00  0.00    -0.031 C 
ATOM     52  H   LIG d   1       5.159  -1.670  -4.029  0.00  0.00     0.032 H 
ATOM     53  H   LIG d   1       5.451   0.030  -4.532  0.00  0.00     0.032 H 
ATOM     54  H   LIG d   1       3.674  -2.003  -5.993  0.00  0.00     0.082 H 
ATOM     55  H   LIG d   1       5.308  -1.465  -6.511  0.00  0.00     0.082 H 
ATOM     56  H   LIG d   1       4.499   0.831  -6.577  0.00  0.00     0.204 HD
BRANCH  46  57
ATOM     57  C   LIG d   1       3.780   0.059  -2.410  0.00  0.00     0.214 C 
ATOM     58  O   LIG d   1       3.447   1.154  -2.010  0.00  0.00    -0.276 OA
ATOM     59  N   LIG d   1       4.448  -0.782  -1.594  0.00  0.00    -0.329 N 
ATOM     60  H   LIG d   1       4.691  -0.474  -0.567  0.00  0.00     0.145 HD
ATOM     61  H   LIG d   1       4.749  -1.775  -1.957  0.00  0.00     0.145 HD
ENDBRANCH  46  57
ENDBRANCH  10  41
TORSDOF 5
ENDMDL
MODEL 3
REMARK VINA RESULT:      -6.4      2.156      4.934
REMARK  5 active torsions:
REMARK  status: ('A' for Active; 'I' for Inactive)
REMARK    1  A    between atoms: C_4  and  N_7 
REMARK       I    between atoms: N_7  and  C_8 
REMARK       I    between atoms: C_8  and  N_10 
REMARK    2  A    between atoms: N_10  and  C_11 
REMARK    3  A    between atoms: C_20  and  N_25 
REMARK    4  A    between atoms: C_22  and  O_24 
REMARK    5  A    between atoms: C_28  and  C_31 
REMARK       I    between atoms: C_31  and  N_33 
ROOT
ATOM      1  C   LIG d   1       4.889  -4.486  -7.527  0.00  0.00     0.084 C 
ATOM      2  H   LIG d   1       4.858  -5.063  -6.590  0.00  0.00     0.055 H 
ATOM      3  C   LIG d   1       6.064  -4.925  -8.416  0.00  0.00     0.106 C 
ATOM      4  H   LIG d   1       7.005  -4.950  -7.850  0.00  0.00     0.064 H 
ATOM      5  C   LIG d   1       5.662  -6.250  -9.105  0.00  0.00     0.079 C 
ATOM      6  O   LIG d   1       5.020  -5.854 -10.353  0.00  0.00    -0.344 OA
ATOM      7  C   LIG d   1       5.017  -4.414 -10.354  0.00  0.00     0.206 C 
ATOM      8  H   LIG d   1       5.138  -4.043 -11.383  0.00  0.00     0.097 H 
ATOM      9  O   LIG d   1       6.128  -3.998  -9.529  0.00  0.00    -0.339 OA
ATOM     10  C   LIG d   1       3.727  -3.936  -9.671  0.00  0.00     0.059 C 
ATOM     11  H   LIG d   1       2.849  -4.123 -10.305  0.00  0.00     0.093 H 
ATOM     12  C   LIG d   1       3.589  -4.648  -8.320  0.00  0.00     0.123 C 
ATOM     13  H   LIG d   1       2.723  -4.273  -7.755  0.00  0.00     0.067 H 
ATOM     14  H   LIG d   1       6.562  -6.855  -9.288  0.00  0.00     0.059 H 
ATOM     15  H   LIG d   1       4.972  -6.808  -8.454  0.00  0.00     0.059 H 
ENDROOT
BRANCH   1  16
ATOM     16  N   LIG d   1       5.061  -3.082  -7.143  0.00  0.00    -0.291 N 
ATOM     17  C   LIG d   1       4.778  -2.687  -5.887  0.00  0.00     0.300 C 
ATOM     18  N   LIG d   1       4.935  -1.395  -5.535  0.00  0.00    -0.297 N 
ATOM     19  O   LIG d   1       4.379  -3.495  -5.071  0.00  0.00    -0.253 OA
ATOM     20  H   LIG d   1       5.296  -0.664  -6.274  0.00  0.00     0.150 HD
ATOM     21  H   LIG d   1       5.421  -2.351  -7.883  0.00  0.00     0.151 HD
BRANCH  18  22
ATOM     22  C   LIG d   1       4.627  -0.965  -4.169  0.00  0.00     0.025 C 
ATOM     23  C   LIG d   1       5.615   0.123  -3.743  0.00  0.00    -0.035 C 
ATOM     24  C   LIG d   1       5.293   0.573  -2.316  0.00  0.00    -0.051 C 
ATOM     25  H   LIG d   1       5.530   0.982  -4.424  0.00  0.00     0.028 H 
ATOM     26  H   LIG d   1       6.640  -0.275  -3.779  0.00  0.00     0.028 H 
ATOM     27  C   LIG d   1       3.868   1.127  -2.264  0.00  0.00    -0.053 C 
ATOM     28  H   LIG d   1       6.002   1.356  -2.008  0.00  0.00     0.027 H 
ATOM     29  H   LIG d   1       5.377  -0.287  -1.633  0.00  0.00     0.027 H 
ATOM     30  C   LIG d   1       2.881   0.039  -2.691  0.00  0.00    -0.051 C 
ATOM     31  H   LIG d   1       3.785   1.986  -2.946  0.00  0.00     0.026 H 
ATOM     32  H   LIG d   1       3.637   1.450  -1.239  0.00  0.00     0.026 H 
ATOM     33  C   LIG d   1       3.203  -0.410  -4.118  0.00  0.00    -0.035 C 
ATOM     34  H   LIG d   1       2.965  -0.820  -2.009  0.00  0.00     0.027 H 
ATOM     35  H   LIG d   1       1.857   0.437  -2.655  0.00  0.00     0.027 H 
ATOM     36  H   LIG d   1       3.119   0.448  -4.800  0.00  0.00     0.028 H 
ATOM     37  H   LIG d   1       2.493  -1.193  -4.424  0.00  0.00     0.028 H 
ATOM     38  H   LIG d   1       4.723  -1.849  -3.522  0.00  0.00     0.050 H 
ENDBRANCH  18  22
ENDBRANCH   1  16
BRANCH  12  39
ATOM     39  O   LIG d   1       3.333  -6.037  -8.539  0.00  0.00    -0.384 OA
ATOM     40  H   LIG d   1       2.379  -6.479  -8.212  0.00  0.00     0.210 HD
ENDBRANCH  12  39
BRANCH  10  41
ATOM     41  N   LIG d   1       3.793  -2.484  -9.456  0.00  0.00     0.243 N 
ATOM     42  C   LIG d   1       4.232  -1.791 -10.674  0.00  0.00    -0.031 C 
ATOM     43  C   LIG d   1       4.429  -0.304 -10.373  0.00  0.00    -0.001 C 
ATOM     44  H   LIG d   1       5.183  -2.224 -11.019  0.00  0.00     0.082 H 
ATOM     45  H   LIG d   1       3.470  -1.909 -11.458  0.00  0.00     0.082 H 
ATOM     46  C   LIG d   1       3.110   0.291  -9.873  0.00  0.00     0.045 C 
ATOM     47  H   LIG d   1       4.744   0.219 -11.289  0.00  0.00     0.032 H 
ATOM     48  H   LIG d   1       5.203  -0.184  -9.599  0.00  0.00     0.032 H 
ATOM     49  C   LIG d   1       2.650  -0.479  -8.633  0.00  0.00    -0.001 C 
ATOM     50  H   LIG d   1       2.345   0.228 -10.662  0.00  0.00     0.040 H 
ATOM     51  C   LIG d   1       2.504  -1.962  -8.983  0.00  0.00    -0.031 C 
ATOM     52  H   LIG d   1       1.680  -0.086  -8.293  0.00  0.00     0.032 H 
ATOM     53  H   LIG d   1       3.393  -0.364  -7.831  0.00  0.00     0.032 H 
ATOM     54  H   LIG d   1       1.749  -2.078  -9.776  0.00  0.00     0.082 H 
ATOM     55  H   LIG d   1       2.187  -2.520  -8.090  0.00  0.00     0.082 H 
ATOM     56  H   LIG d   1       4.541  -2.290  -8.672  0.00  0.00     0.204 HD
BRANCH  46  57
ATOM     57  C   LIG d   1       3.313   1.742  -9.521  0.00  0.00     0.214 C 
ATOM     58  O   LIG d   1       3.644   2.534 -10.377  0.00  0.00    -0.276 OA
ATOM     59  N   LIG d   1       3.126   2.160  -8.253  0.00  0.00    -0.329 N 
ATOM     60  H   LIG d   1       3.274   3.218  -7.995  0.00  0.00     0.145 HD
ATOM     61  H   LIG d   1       2.825   1.441  -7.477  0.00  0.00     0.145 HD
ENDBRANCH  46  57
ENDBRANCH  10  41
TORSDOF 5
ENDMDL
MODEL 4
REMARK VINA RESULT:      -6.4      3.458      7.740
REMARK  5 active torsions:
REMARK  status: ('A' for Active; 'I' for Inactive)
REMARK    1  A    between atoms: C_4  and  N_7 
REMARK       I    between atoms: N_7  and  C_8 
REMARK       I    between atoms: C_8  and  N_10 
REMARK    2  A    between atoms: N_10  and  C_11 
REMARK    3  A    between atoms: C_20  and  N_25 
REMARK    4  A    between atoms: C_22  and  O_24 
REMARK    5  A    between atoms: C_28  and  C_31 
REMARK       I    between atoms: C_31  and  N_33 
ROOT
ATOM      1  C   LIG d   1       4.120  -0.441  -4.657  0.00  0.00     0.084 C 
ATOM      2  H   LIG d   1       3.381  -1.184  -4.995  0.00  0.00     0.055 H 
ATOM      3  C   LIG d   1       3.478   0.607  -3.734  0.00  0.00     0.106 C 
ATOM      4  H   LIG d   1       2.563   1.025  -4.180  0.00  0.00     0.064 H 
ATOM      5  C   LIG d   1       3.308  -0.036  -2.339  0.00  0.00     0.079 C 
ATOM      6  O   LIG d   1       4.544   0.266  -1.625  0.00  0.00    -0.344 OA
ATOM      7  C   LIG d   1       5.370   0.987  -2.557  0.00  0.00     0.206 C 
ATOM      8  H   LIG d   1       5.972   1.735  -2.019  0.00  0.00     0.097 H 
ATOM      9  O   LIG d   1       4.475   1.631  -3.491  0.00  0.00    -0.339 OA
ATOM     10  C   LIG d   1       6.207  -0.031  -3.345  0.00  0.00     0.059 C 
ATOM     11  H   LIG d   1       6.989  -0.477  -2.712  0.00  0.00     0.093 H 
ATOM     12  C   LIG d   1       5.275  -1.111  -3.906  0.00  0.00     0.123 C 
ATOM     13  H   LIG d   1       5.819  -1.816  -4.551  0.00  0.00     0.067 H 
ATOM     14  H   LIG d   1       2.433   0.404  -1.836  0.00  0.00     0.059 H 
ATOM     15  H   LIG d   1       3.159  -1.120  -2.450  0.00  0.00     0.059 H 
ENDROOT
BRANCH   1  16
ATOM     16  N   LIG d   1       4.631   0.214  -5.865  0.00  0.00    -0.291 N 
ATOM     17  C   LIG d   1       4.414  -0.338  -7.074  0.00  0.00     0.300 C 
ATOM     18  N   LIG d   1       4.886   0.265  -8.185  0.00  0.00    -0.297 N 
ATOM     19  O   LIG d   1       3.795  -1.380  -7.165  0.00  0.00    -0.253 OA
ATOM     20  H   LIG d   1       5.446   1.207  -8.102  0.00  0.00     0.150 HD
ATOM     21  H   LIG d   1       5.193   1.157  -5.782  0.00  0.00     0.151 HD
BRANCH  18  22
ATOM     22  C   LIG d   1       4.650  -0.336  -9.499  0.00  0.00     0.025 C 
ATOM     23  C   LIG d   1       3.381   0.262 -10.113  0.00  0.00    -0.035 C 
ATOM     24  C   LIG d   1       3.134  -0.365 -11.487  0.00  0.00    -0.051 C 
ATOM     25  H   LIG d   1       3.506   1.349 -10.223  0.00  0.00     0.028 H 
ATOM     26  H   LIG d   1       2.523   0.056  -9.456  0.00  0.00     0.028 H 
ATOM     27  C   LIG d   1       4.328  -0.078 -12.400  0.00  0.00    -0.053 C 
ATOM     28  H   LIG d   1       2.224   0.065 -11.928  0.00  0.00     0.027 H 
ATOM     29  H   LIG d   1       3.011  -1.453 -11.376  0.00  0.00     0.027 H 
ATOM     30  C   LIG d   1       5.596  -0.676 -11.786  0.00  0.00    -0.051 C 
ATOM     31  H   LIG d   1       4.452   1.010 -12.510  0.00  0.00     0.026 H 
ATOM     32  H   LIG d   1       4.151  -0.529 -13.387  0.00  0.00     0.026 H 
ATOM     33  C   LIG d   1       5.842  -0.049 -10.413  0.00  0.00    -0.035 C 
ATOM     34  H   LIG d   1       5.472  -1.763 -11.676  0.00  0.00     0.027 H 
ATOM     35  H   LIG d   1       6.454  -0.469 -12.443  0.00  0.00     0.027 H 
ATOM     36  H   LIG d   1       5.966   1.038 -10.524  0.00  0.00     0.028 H 
ATOM     37  H   LIG d   1       6.754  -0.479  -9.972  0.00  0.00     0.028 H 
ATOM     38  H   LIG d   1       4.531  -1.418  -9.345  0.00  0.00     0.050 H 
ENDBRANCH  18  22
ENDBRANCH   1  16
BRANCH  12  39
ATOM     39  O   LIG d   1       4.754  -1.896  -2.831  0.00  0.00    -0.384 OA
ATOM     40  H   LIG d   1       4.573  -1.433  -1.850  0.00  0.00     0.210 HD
ENDBRANCH  12  39
BRANCH  10  41
ATOM     41  N   LIG d   1       6.895   0.648  -4.452  0.00  0.00     0.243 N 
ATOM     42  C   LIG d   1       7.729   1.751  -3.956  0.00  0.00    -0.031 C 
ATOM     43  C   LIG d   1       8.312   2.523  -5.140  0.00  0.00    -0.001 C 
ATOM     44  H   LIG d   1       7.114   2.428  -3.344  0.00  0.00     0.082 H 
ATOM     45  H   LIG d   1       8.547   1.345  -3.344  0.00  0.00     0.082 H 
ATOM     46  C   LIG d   1       9.150   1.573  -6.001  0.00  0.00     0.045 C 
ATOM     47  H   LIG d   1       8.949   3.340  -4.770  0.00  0.00     0.032 H 
ATOM     48  H   LIG d   1       7.494   2.942  -5.746  0.00  0.00     0.032 H 
ATOM     49  C   LIG d   1       8.271   0.409  -6.465  0.00  0.00    -0.001 C 
ATOM     50  H   LIG d   1      10.004   1.193  -5.422  0.00  0.00     0.040 H 
ATOM     51  C   LIG d   1       7.688  -0.303  -5.242  0.00  0.00    -0.031 C 
ATOM     52  H   LIG d   1       8.876  -0.301  -7.048  0.00  0.00     0.032 H 
ATOM     53  H   LIG d   1       7.451   0.791  -7.091  0.00  0.00     0.032 H 
ATOM     54  H   LIG d   1       8.508  -0.699  -4.624  0.00  0.00     0.082 H 
ATOM     55  H   LIG d   1       7.045  -1.132  -5.572  0.00  0.00     0.082 H 
ATOM     56  H   LIG d   1       6.130   1.078  -5.114  0.00  0.00     0.204 HD
BRANCH  46  57
ATOM     57  C   LIG d   1       9.679   2.315  -7.201  0.00  0.00     0.214 C 
ATOM     58  O   LIG d   1       9.274   3.430  -7.453  0.00  0.00    -0.276 OA
ATOM     59  N   LIG d   1      10.604   1.740  -7.995  0.00  0.00    -0.329 N 
ATOM     60  H   LIG d   1      10.991   2.281  -8.871  0.00  0.00     0.145 HD
ATOM     61  H   LIG d   1      10.972   0.729  -7.766  0.00  0.00     0.145 HD
ENDBRANCH  46  57
ENDBRANCH  10  41
TORSDOF 5
ENDMDL
MODEL 5
REMARK VINA RESULT:      -6.2      2.238      7.079
REMARK  5 active torsions:
REMARK  status: ('A' for Active; 'I' for Inactive)
REMARK    1  A    between atoms: C_4  and  N_7 
REMARK       I    between atoms: N_7  and  C_8 
REMARK       I    between atoms: C_8  and  N_10 
REMARK    2  A    between atoms: N_10  and  C_11 
REMARK    3  A    between atoms: C_20  and  N_25 
REMARK    4  A    between atoms: C_22  and  O_24 
REMARK    5  A    between atoms: C_28  and  C_31 
REMARK       I    between atoms: C_31  and  N_33 
ROOT
ATOM      1  C   LIG d   1       4.657  -2.303  -3.646  0.00  0.00     0.084 C 
ATOM      2  H   LIG d   1       5.226  -3.085  -3.120  0.00  0.00     0.055 H 
ATOM      3  C   LIG d   1       3.607  -1.660  -2.725  0.00  0.00     0.106 C 
ATOM      4  H   LIG d   1       2.999  -2.423  -2.219  0.00  0.00     0.064 H 
ATOM      5  C   LIG d   1       4.343  -0.667  -1.795  0.00  0.00     0.079 C 
ATOM      6  O   LIG d   1       4.327   0.607  -2.506  0.00  0.00    -0.344 OA
ATOM      7  C   LIG d   1       3.673   0.349  -3.762  0.00  0.00     0.206 C 
ATOM      8  H   LIG d   1       3.094   1.233  -4.068  0.00  0.00     0.097 H 
ATOM      9  O   LIG d   1       2.798  -0.782  -3.547  0.00  0.00    -0.339 OA
ATOM     10  C   LIG d   1       4.739  -0.078  -4.781  0.00  0.00     0.059 C 
ATOM     11  H   LIG d   1       5.371   0.774  -5.074  0.00  0.00     0.093 H 
ATOM     12  C   LIG d   1       5.584  -1.203  -4.173  0.00  0.00     0.123 C 
ATOM     13  H   LIG d   1       6.307  -1.601  -4.900  0.00  0.00     0.067 H 
ATOM     14  H   LIG d   1       3.810  -0.600  -0.835  0.00  0.00     0.059 H 
ATOM     15  H   LIG d   1       5.370  -1.020  -1.620  0.00  0.00     0.059 H 
ENDROOT
BRANCH   1  16
ATOM     16  N   LIG d   1       3.987  -2.963  -4.769  0.00  0.00    -0.291 N 
ATOM     17  C   LIG d   1       4.571  -4.012  -5.381  0.00  0.00     0.300 C 
ATOM     18  N   LIG d   1       3.954  -4.619  -6.415  0.00  0.00    -0.297 N 
ATOM     19  O   LIG d   1       5.655  -4.411  -5.001  0.00  0.00    -0.253 OA
ATOM     20  H   LIG d   1       2.973  -4.258  -6.758  0.00  0.00     0.150 HD
ATOM     21  H   LIG d   1       3.006  -2.602  -5.113  0.00  0.00     0.151 HD
BRANCH  18  22
ATOM     22  C   LIG d   1       4.589  -5.759  -7.079  0.00  0.00     0.025 C 
ATOM     23  C   LIG d   1       4.577  -6.967  -6.140  0.00  0.00    -0.035 C 
ATOM     24  C   LIG d   1       5.241  -8.159  -6.834  0.00  0.00    -0.051 C 
ATOM     25  H   LIG d   1       3.538  -7.224  -5.886  0.00  0.00     0.028 H 
ATOM     26  H   LIG d   1       5.131  -6.724  -5.221  0.00  0.00     0.028 H 
ATOM     27  C   LIG d   1       4.472  -8.498  -8.112  0.00  0.00    -0.053 C 
ATOM     28  H   LIG d   1       5.232  -9.028  -6.160  0.00  0.00     0.027 H 
ATOM     29  H   LIG d   1       6.281  -7.903  -7.089  0.00  0.00     0.027 H 
ATOM     30  C   LIG d   1       4.484  -7.290  -9.051  0.00  0.00    -0.051 C 
ATOM     31  H   LIG d   1       3.433  -8.755  -7.857  0.00  0.00     0.026 H 
ATOM     32  H   LIG d   1       4.949  -9.354  -8.611  0.00  0.00     0.026 H 
ATOM     33  C   LIG d   1       3.820  -6.099  -8.357  0.00  0.00    -0.035 C 
ATOM     34  H   LIG d   1       5.523  -7.033  -9.306  0.00  0.00     0.027 H 
ATOM     35  H   LIG d   1       3.930  -7.533  -9.970  0.00  0.00     0.027 H 
ATOM     36  H   LIG d   1       2.781  -6.355  -8.103  0.00  0.00     0.028 H 
ATOM     37  H   LIG d   1       3.829  -5.230  -9.032  0.00  0.00     0.028 H 
ATOM     38  H   LIG d   1       5.622  -5.463  -7.315  0.00  0.00     0.050 H 
ENDBRANCH  18  22
ENDBRANCH   1  16
BRANCH  12  39
ATOM     39  O   LIG d   1       6.367  -0.682  -3.097  0.00  0.00    -0.384 OA
ATOM     40  H   LIG d   1       6.533  -1.288  -2.194  0.00  0.00     0.210 HD
ENDBRANCH  12  39
BRANCH  10  41
ATOM     41  N   LIG d   1       4.085  -0.561  -6.005  0.00  0.00     0.243 N 
ATOM     42  C   LIG d   1       3.103   0.415  -6.497  0.00  0.00    -0.031 C 
ATOM     43  C   LIG d   1       2.341  -0.181  -7.683  0.00  0.00    -0.001 C 
ATOM     44  H   LIG d   1       2.394   0.659  -5.692  0.00  0.00     0.082 H 
ATOM     45  H   LIG d   1       3.623   1.329  -6.817  0.00  0.00     0.082 H 
ATOM     46  C   LIG d   1       3.333  -0.538  -8.793  0.00  0.00     0.045 C 
ATOM     47  H   LIG d   1       1.616   0.554  -8.061  0.00  0.00     0.032 H 
ATOM     48  H   LIG d   1       1.808  -1.088  -7.360  0.00  0.00     0.032 H 
ATOM     49  C   LIG d   1       4.373  -1.517  -8.242  0.00  0.00    -0.001 C 
ATOM     50  H   LIG d   1       3.830   0.371  -9.163  0.00  0.00     0.040 H 
ATOM     51  C   LIG d   1       5.077  -0.884  -7.040  0.00  0.00    -0.031 C 
ATOM     52  H   LIG d   1       5.115  -1.746  -9.022  0.00  0.00     0.032 H 
ATOM     53  H   LIG d   1       3.875  -2.446  -7.927  0.00  0.00     0.032 H 
ATOM     54  H   LIG d   1       5.587   0.038  -7.358  0.00  0.00     0.082 H 
ATOM     55  H   LIG d   1       5.814  -1.591  -6.633  0.00  0.00     0.082 H 
ATOM     56  H   LIG d   1       3.544  -1.486  -5.759  0.00  0.00     0.204 HD
BRANCH  46  57
ATOM     57  C   LIG d   1       2.595  -1.179  -9.941  0.00  0.00     0.214 C 
ATOM     58  O   LIG d   1       3.211  -1.631 -10.882  0.00  0.00    -0.276 OA
ATOM     59  N   LIG d   1       1.248  -1.249  -9.920  0.00  0.00    -0.329 N 
ATOM     60  H   LIG d   1       0.709  -1.716 -10.757  0.00  0.00     0.145 HD
ATOM     61  H   LIG d   1       0.690  -0.839  -9.066  0.00  0.00     0.145 HD
ENDBRANCH  46  57
ENDBRANCH  10  41
TORSDOF 5
ENDMDL
MODEL 6
REMARK VINA RESULT:      -6.2      6.008      8.388
REMARK  5 active torsions:
REMARK  status: ('A' for Active; 'I' for Inactive)
REMARK    1  A    between atoms: C_4  and  N_7 
REMARK       I    between atoms: N_7  and  C_8 
REMARK       I    between atoms: C_8  and  N_10 
REMARK    2  A    between atoms: N_10  and  C_11 
REMARK    3  A    between atoms: C_20  and  N_25 
REMARK    4  A    between atoms: C_22  and  O_24 
REMARK    5  A    between atoms: C_28  and  C_31 
REMARK       I    between atoms: C_31  and  N_33 
ROOT
ATOM      1  C   LIG d   1       8.479   1.558  -7.878  0.00  0.00     0.084 C 
ATOM      2  H   LIG d   1       7.512   1.246  -8.300  0.00  0.00     0.055 H 
ATOM      3  C   LIG d   1       9.601   0.583  -8.269  0.00  0.00     0.106 C 
ATOM      4  H   LIG d   1       9.315  -0.458  -8.065  0.00  0.00     0.064 H 
ATOM      5  C   LIG d   1      10.004   0.891  -9.730  0.00  0.00     0.079 C 
ATOM      6  O   LIG d   1      11.065   1.887  -9.634  0.00  0.00    -0.344 OA
ATOM      7  C   LIG d   1      11.224   2.157  -8.229  0.00  0.00     0.206 C 
ATOM      8  H   LIG d   1      12.281   2.368  -8.008  0.00  0.00     0.097 H 
ATOM      9  O   LIG d   1      10.785   0.972  -7.528  0.00  0.00    -0.339 OA
ATOM     10  C   LIG d   1      10.271   3.300  -7.849  0.00  0.00     0.059 C 
ATOM     11  H   LIG d   1      10.618   4.259  -8.261  0.00  0.00     0.093 H 
ATOM     12  C   LIG d   1       8.865   2.962  -8.355  0.00  0.00     0.123 C 
ATOM     13  H   LIG d   1       8.129   3.713  -8.030  0.00  0.00     0.067 H 
ATOM     14  H   LIG d   1      10.358  -0.031 -10.215  0.00  0.00     0.059 H 
ATOM     15  H   LIG d   1       9.132   1.280 -10.277  0.00  0.00     0.059 H 
ENDROOT
BRANCH   1  16
ATOM     16  N   LIG d   1       8.315   1.560  -6.422  0.00  0.00    -0.291 N 
ATOM     17  C   LIG d   1       7.231   0.985  -5.865  0.00  0.00     0.300 C 
ATOM     18  N   LIG d   1       7.080   0.988  -4.525  0.00  0.00    -0.297 N 
ATOM     19  O   LIG d   1       6.388   0.466  -6.571  0.00  0.00    -0.253 OA
ATOM     20  H   LIG d   1       7.842   1.458  -3.887  0.00  0.00     0.150 HD
ATOM     21  H   LIG d   1       9.077   2.031  -5.784  0.00  0.00     0.151 HD
BRANCH  18  22
ATOM     22  C   LIG d   1       5.901   0.364  -3.921  0.00  0.00     0.025 C 
ATOM     23  C   LIG d   1       6.283  -1.008  -3.359  0.00  0.00    -0.035 C 
ATOM     24  C   LIG d   1       5.052  -1.661  -2.726  0.00  0.00    -0.051 C 
ATOM     25  H   LIG d   1       7.065  -0.886  -2.595  0.00  0.00     0.028 H 
ATOM     26  H   LIG d   1       6.659  -1.646  -4.172  0.00  0.00     0.028 H 
ATOM     27  C   LIG d   1       4.527  -0.773  -1.596  0.00  0.00    -0.053 C 
ATOM     28  H   LIG d   1       5.325  -2.646  -2.322  0.00  0.00     0.027 H 
ATOM     29  H   LIG d   1       4.268  -1.783  -3.490  0.00  0.00     0.027 H 
ATOM     30  C   LIG d   1       4.146   0.598  -2.158  0.00  0.00    -0.051 C 
ATOM     31  H   LIG d   1       5.310  -0.652  -0.833  0.00  0.00     0.026 H 
ATOM     32  H   LIG d   1       3.642  -1.242  -1.141  0.00  0.00     0.026 H 
ATOM     33  C   LIG d   1       5.377   1.250  -2.790  0.00  0.00    -0.035 C 
ATOM     34  H   LIG d   1       3.363   0.476  -2.921  0.00  0.00     0.027 H 
ATOM     35  H   LIG d   1       3.770   1.236  -1.345  0.00  0.00     0.027 H 
ATOM     36  H   LIG d   1       6.159   1.372  -2.027  0.00  0.00     0.028 H 
ATOM     37  H   LIG d   1       5.103   2.236  -3.194  0.00  0.00     0.028 H 
ATOM     38  H   LIG d   1       5.146   0.260  -4.714  0.00  0.00     0.050 H 
ENDBRANCH  18  22
ENDBRANCH   1  16
BRANCH  12  39
ATOM     39  O   LIG d   1       8.850   3.002  -9.783  0.00  0.00    -0.384 OA
ATOM     40  H   LIG d   1       9.677   2.555 -10.354  0.00  0.00     0.210 HD
ENDBRANCH  12  39
BRANCH  10  41
ATOM     41  N   LIG d   1      10.244   3.454  -6.387  0.00  0.00     0.243 N 
ATOM     42  C   LIG d   1      11.601   3.407  -5.828  0.00  0.00    -0.031 C 
ATOM     43  C   LIG d   1      11.525   3.422  -4.300  0.00  0.00    -0.001 C 
ATOM     44  H   LIG d   1      12.103   2.486  -6.160  0.00  0.00     0.082 H 
ATOM     45  H   LIG d   1      12.171   4.280  -6.176  0.00  0.00     0.082 H 
ATOM     46  C   LIG d   1      10.808   4.695  -3.842  0.00  0.00     0.045 C 
ATOM     47  H   LIG d   1      12.542   3.402  -3.880  0.00  0.00     0.032 H 
ATOM     48  H   LIG d   1      10.967   2.541  -3.950  0.00  0.00     0.032 H 
ATOM     49  C   LIG d   1       9.416   4.743  -4.476  0.00  0.00    -0.001 C 
ATOM     50  H   LIG d   1      11.388   5.582  -4.137  0.00  0.00     0.040 H 
ATOM     51  C   LIG d   1       9.552   4.690  -6.000  0.00  0.00    -0.031 C 
ATOM     52  H   LIG d   1       8.911   5.677  -4.187  0.00  0.00     0.032 H 
ATOM     53  H   LIG d   1       8.823   3.884  -4.131  0.00  0.00     0.032 H 
ATOM     54  H   LIG d   1      10.133   5.558  -6.346  0.00  0.00     0.082 H 
ATOM     55  H   LIG d   1       8.553   4.710  -6.458  0.00  0.00     0.082 H 
ATOM     56  H   LIG d   1       9.680   2.608  -5.968  0.00  0.00     0.204 HD
BRANCH  46  57
ATOM     57  C   LIG d   1      10.679   4.688  -2.340  0.00  0.00     0.214 C 
ATOM     58  O   LIG d   1      10.156   5.623  -1.772  0.00  0.00    -0.276 OA
ATOM     59  N   LIG d   1      11.145   3.642  -1.629  0.00  0.00    -0.329 N 
ATOM     60  H   LIG d   1      11.051   3.636  -0.533  0.00  0.00     0.145 HD
ATOM     61  H   LIG d   1      11.619   2.794  -2.145  0.00  0.00     0.145 HD
ENDBRANCH  46  57
ENDBRANCH  10  41
TORSDOF 5
ENDMDL
MODEL 7
REMARK VINA RESULT:      -5.8      3.525      7.019
REMARK  5 active torsions:
REMARK  status: ('A' for Active; 'I' for Inactive)
REMARK    1  A    between atoms: C_4  and  N_7 
REMARK       I    between atoms: N_7  and  C_8 
REMARK       I    between atoms: C_8  and  N_10 
REMARK    2  A    between atoms: N_10  and  C_11 
REMARK    3  A    between atoms: C_20  and  N_25 
REMARK    4  A    between atoms: C_22  and  O_24 
REMARK    5  A    between atoms: C_28  and  C_31 
REMARK       I    between atoms: C_31  and  N_33 
ROOT
ATOM      1  C   LIG d   1       7.951   1.324  -7.095  0.00  0.00     0.084 C 
ATOM      2  H   LIG d   1       7.893   2.109  -7.864  0.00  0.00     0.055 H 
ATOM      3  C   LIG d   1       9.021   0.277  -7.443  0.00  0.00     0.106 C 
ATOM      4  H   LIG d   1       8.904  -0.086  -8.474  0.00  0.00     0.064 H 
ATOM      5  C   LIG d   1      10.402   0.882  -7.099  0.00  0.00     0.079 C 
ATOM      6  O   LIG d   1      10.651   0.504  -5.712  0.00  0.00    -0.344 OA
ATOM      7  C   LIG d   1       9.485  -0.223  -5.286  0.00  0.00     0.206 C 
ATOM      8  H   LIG d   1       9.777  -1.013  -4.579  0.00  0.00     0.097 H 
ATOM      9  O   LIG d   1       8.898  -0.797  -6.476  0.00  0.00    -0.339 OA
ATOM     10  C   LIG d   1       8.475   0.782  -4.712  0.00  0.00     0.059 C 
ATOM     11  H   LIG d   1       8.814   1.173  -3.741  0.00  0.00     0.093 H 
ATOM     12  C   LIG d   1       8.278   1.919  -5.721  0.00  0.00     0.123 C 
ATOM     13  H   LIG d   1       7.498   2.620  -5.390  0.00  0.00     0.067 H 
ATOM     14  H   LIG d   1      11.163   0.466  -7.775  0.00  0.00     0.059 H 
ATOM     15  H   LIG d   1      10.363   1.976  -7.220  0.00  0.00     0.059 H 
ENDROOT
BRANCH   1  16
ATOM     16  N   LIG d   1       6.633   0.686  -7.054  0.00  0.00    -0.291 N 
ATOM     17  C   LIG d   1       5.824   0.739  -8.131  0.00  0.00     0.300 C 
ATOM     18  N   LIG d   1       4.611   0.153  -8.092  0.00  0.00    -0.297 N 
ATOM     19  O   LIG d   1       6.188   1.318  -9.136  0.00  0.00    -0.253 OA
ATOM     20  H   LIG d   1       4.282  -0.370  -7.182  0.00  0.00     0.150 HD
ATOM     21  H   LIG d   1       6.303   0.164  -6.144  0.00  0.00     0.151 HD
BRANCH  18  22
ATOM     22  C   LIG d   1       3.732   0.211  -9.263  0.00  0.00     0.025 C 
ATOM     23  C   LIG d   1       4.333  -0.628 -10.393  0.00  0.00    -0.035 C 
ATOM     24  C   LIG d   1       3.415  -0.568 -11.616  0.00  0.00    -0.051 C 
ATOM     25  H   LIG d   1       4.432  -1.672 -10.061  0.00  0.00     0.028 H 
ATOM     26  H   LIG d   1       5.324  -0.232 -10.658  0.00  0.00     0.028 H 
ATOM     27  C   LIG d   1       2.036  -1.119 -11.247  0.00  0.00    -0.053 C 
ATOM     28  H   LIG d   1       3.846  -1.172 -12.428  0.00  0.00     0.027 H 
ATOM     29  H   LIG d   1       3.316   0.477 -11.949  0.00  0.00     0.027 H 
ATOM     30  C   LIG d   1       1.437  -0.279 -10.118  0.00  0.00    -0.051 C 
ATOM     31  H   LIG d   1       2.136  -2.163 -10.915  0.00  0.00     0.026 H 
ATOM     32  H   LIG d   1       1.377  -1.075 -12.126  0.00  0.00     0.026 H 
ATOM     33  C   LIG d   1       2.354  -0.340  -8.895  0.00  0.00    -0.035 C 
ATOM     34  H   LIG d   1       1.337   0.765 -10.449  0.00  0.00     0.027 H 
ATOM     35  H   LIG d   1       0.445  -0.676  -9.852  0.00  0.00     0.027 H 
ATOM     36  H   LIG d   1       2.453  -1.384  -8.563  0.00  0.00     0.028 H 
ATOM     37  H   LIG d   1       1.923   0.264  -8.083  0.00  0.00     0.028 H 
ATOM     38  H   LIG d   1       3.661   1.267  -9.562  0.00  0.00     0.050 H 
ENDBRANCH  18  22
ENDBRANCH   1  16
BRANCH  12  39
ATOM     39  O   LIG d   1       9.477   2.692  -5.808  0.00  0.00    -0.384 OA
ATOM     40  H   LIG d   1       9.438   3.729  -6.172  0.00  0.00     0.210 HD
ENDBRANCH  12  39
BRANCH  10  41
ATOM     41  N   LIG d   1       7.191   0.109  -4.473  0.00  0.00     0.243 N 
ATOM     42  C   LIG d   1       7.398  -1.238  -3.925  0.00  0.00    -0.031 C 
ATOM     43  C   LIG d   1       6.053  -1.961  -3.826  0.00  0.00    -0.001 C 
ATOM     44  H   LIG d   1       8.069  -1.805  -4.586  0.00  0.00     0.082 H 
ATOM     45  H   LIG d   1       7.847  -1.162  -2.924  0.00  0.00     0.082 H 
ATOM     46  C   LIG d   1       5.113  -1.160  -2.920  0.00  0.00     0.045 C 
ATOM     47  H   LIG d   1       6.204  -2.964  -3.401  0.00  0.00     0.032 H 
ATOM     48  H   LIG d   1       5.608  -2.051  -4.828  0.00  0.00     0.032 H 
ATOM     49  C   LIG d   1       4.953   0.253  -3.487  0.00  0.00    -0.001 C 
ATOM     50  H   LIG d   1       5.521  -1.113  -1.899  0.00  0.00     0.040 H 
ATOM     51  C   LIG d   1       6.330   0.913  -3.596  0.00  0.00    -0.031 C 
ATOM     52  H   LIG d   1       4.314   0.849  -2.818  0.00  0.00     0.032 H 
ATOM     53  H   LIG d   1       4.492   0.201  -4.484  0.00  0.00     0.032 H 
ATOM     54  H   LIG d   1       6.785   0.979  -2.596  0.00  0.00     0.082 H 
ATOM     55  H   LIG d   1       6.220   1.923  -4.016  0.00  0.00     0.082 H 
ATOM     56  H   LIG d   1       6.679   0.002  -5.440  0.00  0.00     0.204 HD
BRANCH  46  57
ATOM     57  C   LIG d   1       3.767  -1.837  -2.866  0.00  0.00     0.214 C 
ATOM     58  O   LIG d   1       3.618  -2.837  -2.196  0.00  0.00    -0.276 OA
ATOM     59  N   LIG d   1       2.729  -1.330  -3.561  0.00  0.00    -0.329 N 
ATOM     60  H   LIG d   1       1.747  -1.824  -3.521  0.00  0.00     0.145 HD
ATOM     61  H   LIG d   1       2.865  -0.423  -4.167  0.00  0.00     0.145 HD
ENDBRANCH  46  57
ENDBRANCH  10  41
TORSDOF 5
ENDMDL
MODEL 8
REMARK VINA RESULT:      -5.8     11.053     14.642
REMARK  5 active torsions:
REMARK  status: ('A' for Active; 'I' for Inactive)
REMARK    1  A    between atoms: C_4  and  N_7 
REMARK       I    between atoms: N_7  and  C_8 
REMARK       I    between atoms: C_8  and  N_10 
REMARK    2  A    between atoms: N_10  and  C_11 
REMARK    3  A    between atoms: C_20  and  N_25 
REMARK    4  A    between atoms: C_22  and  O_24 
REMARK    5  A    between atoms: C_28  and  C_31 
REMARK       I    between atoms: C_31  and  N_33 
ROOT
ATOM      1  C   LIG d   1       9.618  10.895  -4.083  0.00  0.00     0.084 C 
ATOM      2  H   LIG d   1       9.088  10.882  -5.047  0.00  0.00     0.055 H 
ATOM      3  C   LIG d   1      10.628  12.052  -4.014  0.00  0.00     0.106 C 
ATOM      4  H   LIG d   1      11.273  12.072  -4.903  0.00  0.00     0.064 H 
ATOM      5  C   LIG d   1       9.836  13.351  -3.732  0.00  0.00     0.079 C 
ATOM      6  O   LIG d   1       9.789  13.462  -2.278  0.00  0.00    -0.344 OA
ATOM      7  C   LIG d   1      10.462  12.296  -1.772  0.00  0.00     0.206 C 
ATOM      8  H   LIG d   1      10.995  12.548  -0.843  0.00  0.00     0.097 H 
ATOM      9  O   LIG d   1      11.394  11.879  -2.795  0.00  0.00    -0.339 OA
ATOM     10  C   LIG d   1       9.425  11.175  -1.606  0.00  0.00     0.059 C 
ATOM     11  H   LIG d   1       8.751  11.380  -0.762  0.00  0.00     0.093 H 
ATOM     12  C   LIG d   1       8.637  11.033  -2.914  0.00  0.00     0.123 C 
ATOM     13  H   LIG d   1       7.939  10.183  -2.872  0.00  0.00     0.067 H 
ATOM     14  H   LIG d   1      10.361  14.205  -4.186  0.00  0.00     0.059 H 
ATOM     15  H   LIG d   1       8.828  13.267  -4.165  0.00  0.00     0.059 H 
ENDROOT
BRANCH   1  16
ATOM     16  N   LIG d   1      10.327   9.617  -3.983  0.00  0.00    -0.291 N 
ATOM     17  C   LIG d   1       9.972   8.585  -4.773  0.00  0.00     0.300 C 
ATOM     18  N   LIG d   1      10.625   7.409  -4.680  0.00  0.00    -0.297 N 
ATOM     19  O   LIG d   1       9.061   8.714  -5.568  0.00  0.00    -0.253 OA
ATOM     20  H   LIG d   1      11.448   7.292  -3.961  0.00  0.00     0.150 HD
ATOM     21  H   LIG d   1      11.151   9.500  -3.262  0.00  0.00     0.151 HD
BRANCH  18  22
ATOM     22  C   LIG d   1      10.238   6.287  -5.539  0.00  0.00     0.025 C 
ATOM     23  C   LIG d   1      11.420   5.894  -6.428  0.00  0.00    -0.035 C 
ATOM     24  C   LIG d   1      11.017   4.722  -7.325  0.00  0.00    -0.051 C 
ATOM     25  H   LIG d   1      12.270   5.596  -5.797  0.00  0.00     0.028 H 
ATOM     26  H   LIG d   1      11.710   6.752  -7.053  0.00  0.00     0.028 H 
ATOM     27  C   LIG d   1      10.612   3.530  -6.456  0.00  0.00    -0.053 C 
ATOM     28  H   LIG d   1      11.866   4.439  -7.964  0.00  0.00     0.027 H 
ATOM     29  H   LIG d   1      10.165   5.020  -7.957  0.00  0.00     0.027 H 
ATOM     30  C   LIG d   1       9.431   3.923  -5.567  0.00  0.00    -0.051 C 
ATOM     31  H   LIG d   1      11.463   3.232  -5.825  0.00  0.00     0.026 H 
ATOM     32  H   LIG d   1      10.322   2.688  -7.101  0.00  0.00     0.026 H 
ATOM     33  C   LIG d   1       9.835   5.095  -4.671  0.00  0.00    -0.035 C 
ATOM     34  H   LIG d   1       8.580   4.221  -6.198  0.00  0.00     0.027 H 
ATOM     35  H   LIG d   1       9.140   3.066  -4.942  0.00  0.00     0.027 H 
ATOM     36  H   LIG d   1      10.684   4.797  -4.039  0.00  0.00     0.028 H 
ATOM     37  H   LIG d   1       8.985   5.377  -4.032  0.00  0.00     0.028 H 
ATOM     38  H   LIG d   1       9.389   6.626  -6.152  0.00  0.00     0.050 H 
ENDBRANCH  18  22
ENDBRANCH   1  16
BRANCH  12  39
ATOM     39  O   LIG d   1       7.822  12.190  -3.108  0.00  0.00    -0.384 OA
ATOM     40  H   LIG d   1       8.204  13.040  -3.692  0.00  0.00     0.210 HD
ENDBRANCH  12  39
BRANCH  10  41
ATOM     41  N   LIG d   1      10.109   9.911  -1.304  0.00  0.00     0.243 N 
ATOM     42  C   LIG d   1      11.069  10.081  -0.206  0.00  0.00    -0.031 C 
ATOM     43  C   LIG d   1      11.864   8.788  -0.017  0.00  0.00    -0.001 C 
ATOM     44  H   LIG d   1      11.760  10.903  -0.447  0.00  0.00     0.082 H 
ATOM     45  H   LIG d   1      10.528  10.318   0.721  0.00  0.00     0.082 H 
ATOM     46  C   LIG d   1      10.899   7.642   0.298  0.00  0.00     0.045 C 
ATOM     47  H   LIG d   1      12.574   8.910   0.816  0.00  0.00     0.032 H 
ATOM     48  H   LIG d   1      12.419   8.558  -0.939  0.00  0.00     0.032 H 
ATOM     49  C   LIG d   1       9.881   7.517  -0.838  0.00  0.00    -0.001 C 
ATOM     50  H   LIG d   1      10.381   7.835   1.250  0.00  0.00     0.040 H 
ATOM     51  C   LIG d   1       9.142   8.847  -1.004  0.00  0.00    -0.031 C 
ATOM     52  H   LIG d   1       9.157   6.723  -0.598  0.00  0.00     0.032 H 
ATOM     53  H   LIG d   1      10.401   7.267  -1.774  0.00  0.00     0.032 H 
ATOM     54  H   LIG d   1       8.609   9.089  -0.072  0.00  0.00     0.082 H 
ATOM     55  H   LIG d   1       8.419   8.764  -1.829  0.00  0.00     0.082 H 
ATOM     56  H   LIG d   1      10.674   9.608  -2.199  0.00  0.00     0.204 HD
BRANCH  46  57
ATOM     57  C   LIG d   1      11.671   6.354   0.429  0.00  0.00     0.214 C 
ATOM     58  O   LIG d   1      12.868   6.342   0.231  0.00  0.00    -0.276 OA
ATOM     59  N   LIG d   1      11.032   5.216   0.765  0.00  0.00    -0.329 N 
ATOM     60  H   LIG d   1      11.595   4.276   0.861  0.00  0.00     0.145 HD
ATOM     61  H   LIG d   1       9.947   5.228   0.945  0.00  0.00     0.145 HD
ENDBRANCH  46  57
ENDBRANCH  10  41
TORSDOF 5
ENDMDL
MODEL 9
REMARK VINA RESULT:      -5.8      4.861      6.849
REMARK  5 active torsions:
REMARK  status: ('A' for Active; 'I' for Inactive)
REMARK    1  A    between atoms: C_4  and  N_7 
REMARK       I    between atoms: N_7  and  C_8 
REMARK       I    between atoms: C_8  and  N_10 
REMARK    2  A    between atoms: N_10  and  C_11 
REMARK    3  A    between atoms: C_20  and  N_25 
REMARK    4  A    between atoms: C_22  and  O_24 
REMARK    5  A    between atoms: C_28  and  C_31 
REMARK       I    between atoms: C_31  and  N_33 
ROOT
ATOM      1  C   LIG d   1       5.560   0.391  -3.742  0.00  0.00     0.084 C 
ATOM      2  H   LIG d   1       5.267   1.451  -3.802  0.00  0.00     0.055 H 
ATOM      3  C   LIG d   1       4.778  -0.345  -2.643  0.00  0.00     0.106 C 
ATOM      4  H   LIG d   1       4.813   0.205  -1.692  0.00  0.00     0.064 H 
ATOM      5  C   LIG d   1       3.363  -0.643  -3.191  0.00  0.00     0.079 C 
ATOM      6  O   LIG d   1       3.468  -1.952  -3.828  0.00  0.00    -0.344 OA
ATOM      7  C   LIG d   1       4.845  -2.347  -3.691  0.00  0.00     0.206 C 
ATOM      8  H   LIG d   1       4.907  -3.439  -3.564  0.00  0.00     0.097 H 
ATOM      9  O   LIG d   1       5.355  -1.669  -2.521  0.00  0.00    -0.339 OA
ATOM     10  C   LIG d   1       5.620  -1.819  -4.907  0.00  0.00     0.059 C 
ATOM     11  H   LIG d   1       5.357  -2.378  -5.818  0.00  0.00     0.093 H 
ATOM     12  C   LIG d   1       5.320  -0.326  -5.075  0.00  0.00     0.123 C 
ATOM     13  H   LIG d   1       5.922   0.117  -5.883  0.00  0.00     0.067 H 
ATOM     14  H   LIG d   1       2.643  -0.655  -2.360  0.00  0.00     0.059 H 
ATOM     15  H   LIG d   1       3.077   0.136  -3.913  0.00  0.00     0.059 H 
ENDROOT
BRANCH   1  16
ATOM     16  N   LIG d   1       6.990   0.375  -3.424  0.00  0.00    -0.291 N 
ATOM     17  C   LIG d   1       7.786   1.379  -3.840  0.00  0.00     0.300 C 
ATOM     18  N   LIG d   1       9.102   1.363  -3.547  0.00  0.00    -0.297 N 
ATOM     19  O   LIG d   1       7.317   2.300  -4.481  0.00  0.00    -0.253 OA
ATOM     20  H   LIG d   1       9.525   0.530  -2.967  0.00  0.00     0.150 HD
ATOM     21  H   LIG d   1       7.414  -0.459  -2.844  0.00  0.00     0.151 HD
BRANCH  18  22
ATOM     22  C   LIG d   1       9.966   2.455  -4.000  0.00  0.00     0.025 C 
ATOM     23  C   LIG d   1      10.711   3.046  -2.801  0.00  0.00    -0.035 C 
ATOM     24  C   LIG d   1      11.615   4.187  -3.274  0.00  0.00    -0.051 C 
ATOM     25  H   LIG d   1      11.325   2.264  -2.330  0.00  0.00     0.028 H 
ATOM     26  H   LIG d   1       9.985   3.432  -2.071  0.00  0.00     0.028 H 
ATOM     27  C   LIG d   1      12.625   3.650  -4.290  0.00  0.00    -0.053 C 
ATOM     28  H   LIG d   1      12.151   4.612  -2.413  0.00  0.00     0.027 H 
ATOM     29  H   LIG d   1      11.001   4.969  -3.746  0.00  0.00     0.027 H 
ATOM     30  C   LIG d   1      11.879   3.060  -5.488  0.00  0.00    -0.051 C 
ATOM     31  H   LIG d   1      13.239   2.869  -3.818  0.00  0.00     0.026 H 
ATOM     32  H   LIG d   1      13.274   4.470  -4.630  0.00  0.00     0.026 H 
ATOM     33  C   LIG d   1      10.976   1.919  -5.015  0.00  0.00    -0.035 C 
ATOM     34  H   LIG d   1      11.266   3.841  -5.960  0.00  0.00     0.027 H 
ATOM     35  H   LIG d   1      12.606   2.673  -6.218  0.00  0.00     0.027 H 
ATOM     36  H   LIG d   1      11.590   1.137  -4.544  0.00  0.00     0.028 H 
ATOM     37  H   LIG d   1      10.440   1.495  -5.877  0.00  0.00     0.028 H 
ATOM     38  H   LIG d   1       9.316   3.213  -4.462  0.00  0.00     0.050 H 
ENDBRANCH  18  22
ENDBRANCH   1  16
BRANCH  12  39
ATOM     39  O   LIG d   1       3.958  -0.154  -5.471  0.00  0.00    -0.384 OA
ATOM     40  H   LIG d   1       3.347   0.637  -5.012  0.00  0.00     0.210 HD
ENDBRANCH  12  39
BRANCH  10  41
ATOM     41  N   LIG d   1       7.061  -2.011  -4.694  0.00  0.00     0.243 N 
ATOM     42  C   LIG d   1       7.354  -3.392  -4.287  0.00  0.00    -0.031 C 
ATOM     43  C   LIG d   1       8.837  -3.517  -3.934  0.00  0.00    -0.001 C 
ATOM     44  H   LIG d   1       6.745  -3.651  -3.408  0.00  0.00     0.082 H 
ATOM     45  H   LIG d   1       7.114  -4.076  -5.113  0.00  0.00     0.082 H 
ATOM     46  C   LIG d   1       9.682  -3.135  -5.152  0.00  0.00     0.045 C 
ATOM     47  H   LIG d   1       9.061  -4.554  -3.643  0.00  0.00     0.032 H 
ATOM     48  H   LIG d   1       9.075  -2.843  -3.097  0.00  0.00     0.032 H 
ATOM     49  C   LIG d   1       9.323  -1.711  -5.585  0.00  0.00    -0.001 C 
ATOM     50  H   LIG d   1       9.494  -3.839  -5.977  0.00  0.00     0.040 H 
ATOM     51  C   LIG d   1       7.825  -1.637  -5.891  0.00  0.00    -0.031 C 
ATOM     52  H   LIG d   1       9.895  -1.445  -6.488  0.00  0.00     0.032 H 
ATOM     53  H   LIG d   1       9.567  -1.007  -4.777  0.00  0.00     0.032 H 
ATOM     54  H   LIG d   1       7.584  -2.331  -6.711  0.00  0.00     0.082 H 
ATOM     55  H   LIG d   1       7.562  -0.612  -6.189  0.00  0.00     0.082 H 
ATOM     56  H   LIG d   1       7.374  -1.347  -3.875  0.00  0.00     0.204 HD
BRANCH  46  57
ATOM     57  C   LIG d   1      11.144  -3.200  -4.793  0.00  0.00     0.214 C 
ATOM     58  O   LIG d   1      11.840  -4.086  -5.241  0.00  0.00    -0.276 OA
ATOM     59  N   LIG d   1      11.678  -2.273  -3.972  0.00  0.00    -0.329 N 
ATOM     60  H   LIG d   1      12.745  -2.320  -3.710  0.00  0.00     0.145 HD
ATOM     61  H   LIG d   1      11.046  -1.470  -3.567  0.00  0.00     0.145 HD
ENDBRANCH  46  57
ENDBRANCH  10  41
TORSDOF 5
ENDMDL
