MODEL 1
REMARK VINA RESULT:      -7.2      0.000      0.000
REMARK  4 active torsions:
REMARK  status: ('A' for Active; 'I' for Inactive)
REMARK    1  A    between atoms: C_4  and  C_7 
REMARK    2  A    between atoms: C_7  and  P_8 
REMARK    3  A    between atoms: P_8  and  N_10 
REMARK    4  A    between atoms: C_15  and  C_17 
ROOT
ATOM      1  N   LIG d   1       5.615  -2.085  -5.495  0.00  0.00    -0.256 NA
ATOM      2  C   LIG d   1       6.266  -2.870  -6.552  0.00  0.00     0.005 C 
ATOM      3  C   LIG d   1       6.936  -4.099  -5.937  0.00  0.00    -0.040 C 
ATOM      4  C   LIG d   1       7.972  -3.646  -4.903  0.00  0.00    -0.050 C 
ATOM      5  C   LIG d   1       7.278  -2.791  -3.840  0.00  0.00    -0.033 C 
ATOM      6  C   LIG d   1       6.596  -1.599  -4.516  0.00  0.00     0.042 C 
ATOM      7  H   LIG d   1       7.346  -0.992  -5.023  0.00  0.00     0.052 H 
ATOM      8  H   LIG d   1       5.517  -3.190  -7.278  0.00  0.00     0.043 H 
ATOM      9  H   LIG d   1       7.016  -2.257  -7.050  0.00  0.00     0.043 H 
ATOM     10  H   LIG d   1       7.432  -4.674  -6.720  0.00  0.00     0.028 H 
ATOM     11  H   LIG d   1       6.185  -4.720  -5.450  0.00  0.00     0.028 H 
ATOM     12  H   LIG d   1       8.745  -3.058  -5.396  0.00  0.00     0.027 H 
ATOM     13  H   LIG d   1       8.421  -4.520  -4.431  0.00  0.00     0.027 H 
ATOM     14  H   LIG d   1       6.531  -3.391  -3.320  0.00  0.00     0.028 H 
ATOM     15  H   LIG d   1       8.017  -2.429  -3.124  0.00  0.00     0.028 H 
ENDROOT
BRANCH   1  16
ATOM     16  P   LIG d   1       4.731  -0.811  -6.147  0.00  0.00     0.086 P 
ATOM     17  O   LIG d   1       3.636  -0.445  -5.220  0.00  0.00    -0.320 OA
ATOM     18  O   LIG d   1       5.698   0.459  -6.362  0.00  0.00    -0.790 OA
BRANCH  16  19
ATOM     19  C   LIG d   1       4.027  -1.316  -7.751  0.00  0.00     0.027 C 
ATOM     20  H   LIG d   1       4.703  -2.020  -8.237  0.00  0.00     0.039 H 
ATOM     21  H   LIG d   1       3.061  -1.793  -7.589  0.00  0.00     0.039 H 
BRANCH  19  22
ATOM     22  C   LIG d   1       3.848  -0.103  -8.626  0.00  0.00    -0.040 A 
ATOM     23  C   LIG d   1       2.968   0.895  -8.252  0.00  0.00    -0.058 A 
ATOM     24  C   LIG d   1       2.805   2.009  -9.054  0.00  0.00    -0.061 A 
ATOM     25  H   LIG d   1       2.408   0.804  -7.333  0.00  0.00     0.062 H 
ATOM     26  C   LIG d   1       3.521   2.124 -10.230  0.00  0.00    -0.062 A 
ATOM     27  H   LIG d   1       2.117   2.789  -8.762  0.00  0.00     0.062 H 
ATOM     28  C   LIG d   1       4.402   1.126 -10.605  0.00  0.00    -0.061 A 
ATOM     29  H   LIG d   1       3.393   2.995 -10.857  0.00  0.00     0.062 H 
ATOM     30  C   LIG d   1       4.569   0.015  -9.800  0.00  0.00    -0.058 A 
ATOM     31  H   LIG d   1       4.962   1.217 -11.523  0.00  0.00     0.062 H 
ATOM     32  H   LIG d   1       5.260  -0.762 -10.090  0.00  0.00     0.062 H 
ENDBRANCH  19  22
ENDBRANCH  16  19
ENDBRANCH   1  16
BRANCH   6  33
ATOM     33  C   LIG d   1       5.895  -0.764  -3.474  0.00  0.00    -0.012 A 
ATOM     34  C   LIG d   1       6.192   0.578  -3.339  0.00  0.00     0.032 A 
ATOM     35  N   LIG d   1       5.583   1.315  -2.431  0.00  0.00    -0.263 NA
ATOM     36  H   LIG d   1       6.931   1.030  -3.985  0.00  0.00     0.083 H 
ATOM     37  C   LIG d   1       4.674   0.807  -1.621  0.00  0.00     0.028 A 
ATOM     38  C   LIG d   1       4.326  -0.528  -1.698  0.00  0.00    -0.043 A 
ATOM     39  H   LIG d   1       4.196   1.442  -0.889  0.00  0.00     0.083 H 
ATOM     40  C   LIG d   1       4.941  -1.333  -2.644  0.00  0.00    -0.054 A 
ATOM     41  H   LIG d   1       3.580  -0.938  -1.032  0.00  0.00     0.063 H 
ATOM     42  H   LIG d   1       4.686  -2.379  -2.730  0.00  0.00     0.062 H 
ENDBRANCH   6  33
TORSDOF 4
ENDMDL
MODEL 2
REMARK VINA RESULT:      -7.0      1.653      3.659
REMARK  4 active torsions:
REMARK  status: ('A' for Active; 'I' for Inactive)
REMARK    1  A    between atoms: C_4  and  C_7 
REMARK    2  A    between atoms: C_7  and  P_8 
REMARK    3  A    between atoms: P_8  and  N_10 
REMARK    4  A    between atoms: C_15  and  C_17 
ROOT
ATOM      1  N   LIG d   1       4.554   0.331  -4.648  0.00  0.00    -0.256 NA
ATOM      2  C   LIG d   1       3.235   0.669  -4.099  0.00  0.00     0.005 C 
ATOM      3  C   LIG d   1       3.404   1.600  -2.898  0.00  0.00    -0.040 C 
ATOM      4  C   LIG d   1       4.255   0.901  -1.833  0.00  0.00    -0.050 C 
ATOM      5  C   LIG d   1       5.606   0.516  -2.443  0.00  0.00    -0.033 C 
ATOM      6  C   LIG d   1       5.372  -0.383  -3.659  0.00  0.00     0.042 C 
ATOM      7  H   LIG d   1       4.855  -1.290  -3.346  0.00  0.00     0.052 H 
ATOM      8  H   LIG d   1       2.641   1.170  -4.865  0.00  0.00     0.043 H 
ATOM      9  H   LIG d   1       2.727  -0.243  -3.785  0.00  0.00     0.043 H 
ATOM     10  H   LIG d   1       2.425   1.839  -2.481  0.00  0.00     0.028 H 
ATOM     11  H   LIG d   1       3.900   2.518  -3.214  0.00  0.00     0.028 H 
ATOM     12  H   LIG d   1       3.742   0.005  -1.488  0.00  0.00     0.027 H 
ATOM     13  H   LIG d   1       4.415   1.578  -0.993  0.00  0.00     0.027 H 
ATOM     14  H   LIG d   1       6.135   1.417  -2.752  0.00  0.00     0.028 H 
ATOM     15  H   LIG d   1       6.200  -0.020  -1.703  0.00  0.00     0.028 H 
ENDROOT
BRANCH   1  16
ATOM     16  P   LIG d   1       4.407  -0.563  -6.066  0.00  0.00     0.086 P 
ATOM     17  O   LIG d   1       5.561  -0.280  -6.950  0.00  0.00    -0.320 OA
ATOM     18  O   LIG d   1       4.375  -2.133  -5.711  0.00  0.00    -0.790 OA
BRANCH  16  19
ATOM     19  C   LIG d   1       2.862  -0.101  -6.918  0.00  0.00     0.027 C 
ATOM     20  H   LIG d   1       2.229  -0.982  -7.022  0.00  0.00     0.039 H 
ATOM     21  H   LIG d   1       2.338   0.656  -6.334  0.00  0.00     0.039 H 
BRANCH  19  22
ATOM     22  C   LIG d   1       3.186   0.450  -8.282  0.00  0.00    -0.040 A 
ATOM     23  C   LIG d   1       3.324  -0.406  -9.358  0.00  0.00    -0.058 A 
ATOM     24  C   LIG d   1       3.620   0.100 -10.611  0.00  0.00    -0.061 A 
ATOM     25  H   LIG d   1       3.201  -1.469  -9.221  0.00  0.00     0.062 H 
ATOM     26  C   LIG d   1       3.778   1.462 -10.785  0.00  0.00    -0.062 A 
ATOM     27  H   LIG d   1       3.728  -0.568 -11.451  0.00  0.00     0.062 H 
ATOM     28  C   LIG d   1       3.639   2.319  -9.709  0.00  0.00    -0.061 A 
ATOM     29  H   LIG d   1       4.009   1.857 -11.764  0.00  0.00     0.062 H 
ATOM     30  C   LIG d   1       3.338   1.813  -8.458  0.00  0.00    -0.058 A 
ATOM     31  H   LIG d   1       3.762   3.383  -9.846  0.00  0.00     0.062 H 
ATOM     32  H   LIG d   1       3.225   2.483  -7.619  0.00  0.00     0.062 H 
ENDBRANCH  19  22
ENDBRANCH  16  19
ENDBRANCH   1  16
BRANCH   6  33
ATOM     33  C   LIG d   1       6.699  -0.749  -4.275  0.00  0.00    -0.012 A 
ATOM     34  C   LIG d   1       7.541   0.234  -4.756  0.00  0.00     0.032 A 
ATOM     35  N   LIG d   1       8.703  -0.078  -5.295  0.00  0.00    -0.263 NA
ATOM     36  H   LIG d   1       7.246   1.271  -4.688  0.00  0.00     0.083 H 
ATOM     37  C   LIG d   1       9.106  -1.330  -5.399  0.00  0.00     0.028 A 
ATOM     38  C   LIG d   1       8.316  -2.366  -4.939  0.00  0.00    -0.043 A 
ATOM     39  H   LIG d   1      10.065  -1.547  -5.846  0.00  0.00     0.083 H 
ATOM     40  C   LIG d   1       7.090  -2.077  -4.361  0.00  0.00    -0.054 A 
ATOM     41  H   LIG d   1       8.652  -3.390  -5.026  0.00  0.00     0.063 H 
ATOM     42  H   LIG d   1       6.454  -2.866  -3.989  0.00  0.00     0.062 H 
ENDBRANCH   6  33
TORSDOF 4
ENDMDL
MODEL 3
REMARK VINA RESULT:      -6.8      1.802      6.035
REMARK  4 active torsions:
REMARK  status: ('A' for Active; 'I' for Inactive)
REMARK    1  A    between atoms: C_4  and  C_7 
REMARK    2  A    between atoms: C_7  and  P_8 
REMARK    3  A    between atoms: P_8  and  N_10 
REMARK    4  A    between atoms: C_15  and  C_17 
ROOT
ATOM      1  N   LIG d   1       4.966  -1.727  -7.626  0.00  0.00    -0.256 NA
ATOM      2  C   LIG d   1       5.002  -3.028  -6.946  0.00  0.00     0.005 C 
ATOM      3  C   LIG d   1       4.843  -4.148  -7.976  0.00  0.00    -0.040 C 
ATOM      4  C   LIG d   1       3.511  -3.973  -8.712  0.00  0.00    -0.050 C 
ATOM      5  C   LIG d   1       3.480  -2.591  -9.371  0.00  0.00    -0.033 C 
ATOM      6  C   LIG d   1       3.679  -1.516  -8.301  0.00  0.00     0.042 C 
ATOM      7  H   LIG d   1       2.872  -1.577  -7.571  0.00  0.00     0.052 H 
ATOM      8  H   LIG d   1       5.956  -3.141  -6.430  0.00  0.00     0.043 H 
ATOM      9  H   LIG d   1       4.189  -3.081  -6.222  0.00  0.00     0.043 H 
ATOM     10  H   LIG d   1       4.854  -5.113  -7.469  0.00  0.00     0.028 H 
ATOM     11  H   LIG d   1       5.663  -4.103  -8.693  0.00  0.00     0.028 H 
ATOM     12  H   LIG d   1       2.690  -4.057  -8.002  0.00  0.00     0.027 H 
ATOM     13  H   LIG d   1       3.414  -4.743  -9.477  0.00  0.00     0.027 H 
ATOM     14  H   LIG d   1       4.279  -2.522 -10.110  0.00  0.00     0.028 H 
ATOM     15  H   LIG d   1       2.517  -2.444  -9.862  0.00  0.00     0.028 H 
ENDROOT
BRANCH   1  16
ATOM     16  P   LIG d   1       5.296  -0.475  -6.551  0.00  0.00     0.086 P 
ATOM     17  O   LIG d   1       6.055   0.588  -7.249  0.00  0.00    -0.320 OA
ATOM     18  O   LIG d   1       3.913   0.132  -5.993  0.00  0.00    -0.790 OA
BRANCH  16  19
ATOM     19  C   LIG d   1       6.284  -1.113  -5.159  0.00  0.00     0.027 C 
ATOM     20  H   LIG d   1       6.348  -2.199  -5.227  0.00  0.00     0.039 H 
ATOM     21  H   LIG d   1       7.287  -0.687  -5.200  0.00  0.00     0.039 H 
BRANCH  19  22
ATOM     22  C   LIG d   1       5.628  -0.729  -3.859  0.00  0.00    -0.040 A 
ATOM     23  C   LIG d   1       4.917  -1.670  -3.139  0.00  0.00    -0.058 A 
ATOM     24  C   LIG d   1       4.315  -1.318  -1.944  0.00  0.00    -0.061 A 
ATOM     25  H   LIG d   1       4.832  -2.681  -3.508  0.00  0.00     0.062 H 
ATOM     26  C   LIG d   1       4.424  -0.024  -1.472  0.00  0.00    -0.062 A 
ATOM     27  H   LIG d   1       3.760  -2.053  -1.382  0.00  0.00     0.062 H 
ATOM     28  C   LIG d   1       5.134   0.919  -2.192  0.00  0.00    -0.061 A 
ATOM     29  H   LIG d   1       3.953   0.252  -0.540  0.00  0.00     0.062 H 
ATOM     30  C   LIG d   1       5.741   0.565  -3.383  0.00  0.00    -0.058 A 
ATOM     31  H   LIG d   1       5.220   1.930  -1.822  0.00  0.00     0.062 H 
ATOM     32  H   LIG d   1       6.300   1.299  -3.943  0.00  0.00     0.062 H 
ENDBRANCH  19  22
ENDBRANCH  16  19
ENDBRANCH   1  16
BRANCH   6  33
ATOM     33  C   LIG d   1       3.668  -0.155  -8.948  0.00  0.00    -0.012 A 
ATOM     34  C   LIG d   1       4.569   0.150  -9.951  0.00  0.00     0.032 A 
ATOM     35  N   LIG d   1       4.565   1.338 -10.523  0.00  0.00    -0.263 NA
ATOM     36  H   LIG d   1       5.283  -0.594 -10.272  0.00  0.00     0.083 H 
ATOM     37  C   LIG d   1       3.711   2.278 -10.164  0.00  0.00     0.028 A 
ATOM     38  C   LIG d   1       2.782   2.045  -9.168  0.00  0.00    -0.043 A 
ATOM     39  H   LIG d   1       3.738   3.239 -10.656  0.00  0.00     0.083 H 
ATOM     40  C   LIG d   1       2.751   0.806  -8.548  0.00  0.00    -0.054 A 
ATOM     41  H   LIG d   1       2.084   2.818  -8.879  0.00  0.00     0.063 H 
ATOM     42  H   LIG d   1       2.033   0.594  -7.770  0.00  0.00     0.062 H 
ENDBRANCH   6  33
TORSDOF 4
ENDMDL
MODEL 4
REMARK VINA RESULT:      -6.5      2.393      6.207
REMARK  4 active torsions:
REMARK  status: ('A' for Active; 'I' for Inactive)
REMARK    1  A    between atoms: C_4  and  C_7 
REMARK    2  A    between atoms: C_7  and  P_8 
REMARK    3  A    between atoms: P_8  and  N_10 
REMARK    4  A    between atoms: C_15  and  C_17 
ROOT
ATOM      1  N   LIG d   1       6.488   0.648  -7.044  0.00  0.00    -0.256 NA
ATOM      2  C   LIG d   1       7.888   0.792  -6.625  0.00  0.00     0.005 C 
ATOM      3  C   LIG d   1       8.402   2.175  -7.029  0.00  0.00    -0.040 C 
ATOM      4  C   LIG d   1       8.286   2.334  -8.548  0.00  0.00    -0.050 C 
ATOM      5  C   LIG d   1       6.827   2.132  -8.964  0.00  0.00    -0.033 C 
ATOM      6  C   LIG d   1       6.357   0.750  -8.503  0.00  0.00     0.042 C 
ATOM      7  H   LIG d   1       6.969  -0.018  -8.977  0.00  0.00     0.052 H 
ATOM      8  H   LIG d   1       7.956   0.682  -5.543  0.00  0.00     0.043 H 
ATOM      9  H   LIG d   1       8.492   0.024  -7.108  0.00  0.00     0.043 H 
ATOM     10  H   LIG d   1       9.447   2.276  -6.732  0.00  0.00     0.028 H 
ATOM     11  H   LIG d   1       7.807   2.944  -6.537  0.00  0.00     0.028 H 
ATOM     12  H   LIG d   1       8.912   1.591  -9.041  0.00  0.00     0.027 H 
ATOM     13  H   LIG d   1       8.611   3.334  -8.836  0.00  0.00     0.027 H 
ATOM     14  H   LIG d   1       6.207   2.900  -8.502  0.00  0.00     0.028 H 
ATOM     15  H   LIG d   1       6.744   2.201 -10.049  0.00  0.00     0.028 H 
ENDROOT
BRANCH   1  16
ATOM     16  P   LIG d   1       5.835  -0.796  -6.479  0.00  0.00     0.086 P 
ATOM     17  O   LIG d   1       4.383  -0.624  -6.245  0.00  0.00    -0.320 OA
ATOM     18  O   LIG d   1       6.068  -1.955  -7.573  0.00  0.00    -0.790 OA
BRANCH  16  19
ATOM     19  C   LIG d   1       6.651  -1.263  -4.917  0.00  0.00     0.027 C 
ATOM     20  H   LIG d   1       6.705  -2.349  -4.847  0.00  0.00     0.039 H 
ATOM     21  H   LIG d   1       7.658  -0.847  -4.896  0.00  0.00     0.039 H 
BRANCH  19  22
ATOM     22  C   LIG d   1       5.859  -0.723  -3.756  0.00  0.00    -0.040 A 
ATOM     23  C   LIG d   1       5.062  -1.570  -3.008  0.00  0.00    -0.058 A 
ATOM     24  C   LIG d   1       4.336  -1.075  -1.941  0.00  0.00    -0.061 A 
ATOM     25  H   LIG d   1       5.008  -2.619  -3.258  0.00  0.00     0.062 H 
ATOM     26  C   LIG d   1       4.406   0.268  -1.622  0.00  0.00    -0.062 A 
ATOM     27  H   LIG d   1       3.714  -1.737  -1.357  0.00  0.00     0.062 H 
ATOM     28  C   LIG d   1       5.202   1.116  -2.370  0.00  0.00    -0.061 A 
ATOM     29  H   LIG d   1       3.838   0.655  -0.789  0.00  0.00     0.062 H 
ATOM     30  C   LIG d   1       5.932   0.620  -3.433  0.00  0.00    -0.058 A 
ATOM     31  H   LIG d   1       5.257   2.166  -2.120  0.00  0.00     0.062 H 
ATOM     32  H   LIG d   1       6.558   1.282  -4.014  0.00  0.00     0.062 H 
ENDBRANCH  19  22
ENDBRANCH  16  19
ENDBRANCH   1  16
BRANCH   6  33
ATOM     33  C   LIG d   1       4.914   0.554  -8.894  0.00  0.00    -0.012 A 
ATOM     34  C   LIG d   1       4.537  -0.541  -9.648  0.00  0.00     0.032 A 
ATOM     35  N   LIG d   1       3.277  -0.719  -9.993  0.00  0.00    -0.263 NA
ATOM     36  H   LIG d   1       5.282  -1.258  -9.958  0.00  0.00     0.083 H 
ATOM     37  C   LIG d   1       2.332   0.131  -9.637  0.00  0.00     0.028 A 
ATOM     38  C   LIG d   1       2.636   1.248  -8.882  0.00  0.00    -0.043 A 
ATOM     39  H   LIG d   1       1.311  -0.049  -9.938  0.00  0.00     0.083 H 
ATOM     40  C   LIG d   1       3.949   1.467  -8.496  0.00  0.00    -0.054 A 
ATOM     41  H   LIG d   1       1.858   1.941  -8.593  0.00  0.00     0.063 H 
ATOM     42  H   LIG d   1       4.215   2.329  -7.903  0.00  0.00     0.062 H 
ENDBRANCH   6  33
TORSDOF 4
ENDMDL
MODEL 5
REMARK VINA RESULT:      -6.2      1.948      4.033
REMARK  4 active torsions:
REMARK  status: ('A' for Active; 'I' for Inactive)
REMARK    1  A    between atoms: C_4  and  C_7 
REMARK    2  A    between atoms: C_7  and  P_8 
REMARK    3  A    between atoms: P_8  and  N_10 
REMARK    4  A    between atoms: C_15  and  C_17 
ROOT
ATOM      1  N   LIG d   1       4.521  -0.861  -5.165  0.00  0.00    -0.256 NA
ATOM      2  C   LIG d   1       3.306  -0.041  -5.087  0.00  0.00     0.005 C 
ATOM      3  C   LIG d   1       3.008   0.294  -3.625  0.00  0.00    -0.040 C 
ATOM      4  C   LIG d   1       2.819  -1.006  -2.837  0.00  0.00    -0.050 C 
ATOM      5  C   LIG d   1       4.080  -1.864  -2.973  0.00  0.00    -0.033 C 
ATOM      6  C   LIG d   1       4.347  -2.136  -4.455  0.00  0.00     0.042 C 
ATOM      7  H   LIG d   1       3.504  -2.677  -4.883  0.00  0.00     0.052 H 
ATOM      8  H   LIG d   1       3.456   0.882  -5.648  0.00  0.00     0.043 H 
ATOM      9  H   LIG d   1       2.468  -0.592  -5.513  0.00  0.00     0.043 H 
ATOM     10  H   LIG d   1       2.097   0.891  -3.566  0.00  0.00     0.028 H 
ATOM     11  H   LIG d   1       3.840   0.857  -3.203  0.00  0.00     0.028 H 
ATOM     12  H   LIG d   1       1.963  -1.550  -3.234  0.00  0.00     0.027 H 
ATOM     13  H   LIG d   1       2.649  -0.773  -1.786  0.00  0.00     0.027 H 
ATOM     14  H   LIG d   1       4.928  -1.334  -2.541  0.00  0.00     0.028 H 
ATOM     15  H   LIG d   1       3.935  -2.809  -2.450  0.00  0.00     0.028 H 
ENDROOT
BRANCH   1  16
ATOM     16  P   LIG d   1       4.974  -1.119  -6.765  0.00  0.00     0.086 P 
ATOM     17  O   LIG d   1       6.440  -1.319  -6.837  0.00  0.00    -0.320 OA
ATOM     18  O   LIG d   1       4.227  -2.429  -7.330  0.00  0.00    -0.790 OA
BRANCH  16  19
ATOM     19  C   LIG d   1       4.507   0.328  -7.770  0.00  0.00     0.027 C 
ATOM     20  H   LIG d   1       3.959   1.038  -7.151  0.00  0.00     0.039 H 
ATOM     21  H   LIG d   1       5.407   0.805  -8.160  0.00  0.00     0.039 H 
BRANCH  19  22
ATOM     22  C   LIG d   1       3.637  -0.116  -8.917  0.00  0.00    -0.040 A 
ATOM     23  C   LIG d   1       4.205  -0.404 -10.144  0.00  0.00    -0.058 A 
ATOM     24  C   LIG d   1       3.406  -0.813 -11.196  0.00  0.00    -0.061 A 
ATOM     25  H   LIG d   1       5.271  -0.310 -10.281  0.00  0.00     0.062 H 
ATOM     26  C   LIG d   1       2.041  -0.934 -11.021  0.00  0.00    -0.062 A 
ATOM     27  H   LIG d   1       3.850  -1.038 -12.154  0.00  0.00     0.062 H 
ATOM     28  C   LIG d   1       1.473  -0.646  -9.794  0.00  0.00    -0.061 A 
ATOM     29  H   LIG d   1       1.418  -1.253 -11.843  0.00  0.00     0.062 H 
ATOM     30  C   LIG d   1       2.271  -0.242  -8.740  0.00  0.00    -0.058 A 
ATOM     31  H   LIG d   1       0.406  -0.741  -9.657  0.00  0.00     0.062 H 
ATOM     32  H   LIG d   1       1.828  -0.022  -7.780  0.00  0.00     0.062 H 
ENDBRANCH  19  22
ENDBRANCH  16  19
ENDBRANCH   1  16
BRANCH   6  33
ATOM     33  C   LIG d   1       5.599  -2.964  -4.596  0.00  0.00    -0.012 A 
ATOM     34  C   LIG d   1       5.569  -4.165  -5.278  0.00  0.00     0.032 A 
ATOM     35  N   LIG d   1       6.660  -4.895  -5.405  0.00  0.00    -0.263 NA
ATOM     36  H   LIG d   1       4.643  -4.510  -5.713  0.00  0.00     0.083 H 
ATOM     37  C   LIG d   1       7.814  -4.514  -4.891  0.00  0.00     0.028 A 
ATOM     38  C   LIG d   1       7.919  -3.325  -4.196  0.00  0.00    -0.043 A 
ATOM     39  H   LIG d   1       8.686  -5.139  -5.017  0.00  0.00     0.083 H 
ATOM     40  C   LIG d   1       6.796  -2.528  -4.046  0.00  0.00    -0.054 A 
ATOM     41  H   LIG d   1       8.867  -3.018  -3.778  0.00  0.00     0.063 H 
ATOM     42  H   LIG d   1       6.849  -1.591  -3.511  0.00  0.00     0.062 H 
ENDBRANCH   6  33
TORSDOF 4
ENDMDL
MODEL 6
REMARK VINA RESULT:      -6.0      3.246      6.492
REMARK  4 active torsions:
REMARK  status: ('A' for Active; 'I' for Inactive)
REMARK    1  A    between atoms: C_4  and  C_7 
REMARK    2  A    between atoms: C_7  and  P_8 
REMARK    3  A    between atoms: P_8  and  N_10 
REMARK    4  A    between atoms: C_15  and  C_17 
ROOT
ATOM      1  N   LIG d   1       7.943   1.917  -5.498  0.00  0.00    -0.256 NA
ATOM      2  C   LIG d   1       8.677   2.520  -4.378  0.00  0.00     0.005 C 
ATOM      3  C   LIG d   1       9.163   3.914  -4.778  0.00  0.00    -0.040 C 
ATOM      4  C   LIG d   1      10.072   3.800  -6.006  0.00  0.00    -0.050 C 
ATOM      5  C   LIG d   1       9.298   3.126  -7.142  0.00  0.00    -0.033 C 
ATOM      6  C   LIG d   1       8.807   1.754  -6.674  0.00  0.00     0.042 C 
ATOM      7  H   LIG d   1       9.664   1.132  -6.412  0.00  0.00     0.052 H 
ATOM      8  H   LIG d   1       8.018   2.599  -3.513  0.00  0.00     0.043 H 
ATOM      9  H   LIG d   1       9.533   1.894  -4.127  0.00  0.00     0.043 H 
ATOM     10  H   LIG d   1       9.722   4.355  -3.952  0.00  0.00     0.028 H 
ATOM     11  H   LIG d   1       8.307   4.544  -5.017  0.00  0.00     0.028 H 
ATOM     12  H   LIG d   1      10.948   3.203  -5.756  0.00  0.00     0.027 H 
ATOM     13  H   LIG d   1      10.385   4.796  -6.320  0.00  0.00     0.027 H 
ATOM     14  H   LIG d   1       8.444   3.744  -7.417  0.00  0.00     0.028 H 
ATOM     15  H   LIG d   1       9.953   3.003  -8.005  0.00  0.00     0.028 H 
ENDROOT
BRANCH   1  16
ATOM     16  P   LIG d   1       7.255   0.449  -5.047  0.00  0.00     0.086 P 
ATOM     17  O   LIG d   1       6.012   0.228  -5.821  0.00  0.00    -0.320 OA
ATOM     18  O   LIG d   1       8.293  -0.745  -5.348  0.00  0.00    -0.790 OA
BRANCH  16  19
ATOM     19  C   LIG d   1       6.864   0.481  -3.267  0.00  0.00     0.027 C 
ATOM     20  H   LIG d   1       7.617  -0.087  -2.720  0.00  0.00     0.039 H 
ATOM     21  H   LIG d   1       6.861   1.513  -2.915  0.00  0.00     0.039 H 
BRANCH  19  22
ATOM     22  C   LIG d   1       5.507  -0.132  -3.039  0.00  0.00    -0.040 A 
ATOM     23  C   LIG d   1       5.377  -1.505  -2.937  0.00  0.00    -0.058 A 
ATOM     24  C   LIG d   1       4.132  -2.068  -2.727  0.00  0.00    -0.061 A 
ATOM     25  H   LIG d   1       6.248  -2.137  -3.022  0.00  0.00     0.062 H 
ATOM     26  C   LIG d   1       3.018  -1.258  -2.618  0.00  0.00    -0.062 A 
ATOM     27  H   LIG d   1       4.031  -3.139  -2.647  0.00  0.00     0.062 H 
ATOM     28  C   LIG d   1       3.147   0.115  -2.720  0.00  0.00    -0.061 A 
ATOM     29  H   LIG d   1       2.045  -1.698  -2.454  0.00  0.00     0.062 H 
ATOM     30  C   LIG d   1       4.393   0.678  -2.925  0.00  0.00    -0.058 A 
ATOM     31  H   LIG d   1       2.276   0.748  -2.635  0.00  0.00     0.062 H 
ATOM     32  H   LIG d   1       4.494   1.751  -2.999  0.00  0.00     0.062 H 
ENDBRANCH  19  22
ENDBRANCH  16  19
ENDBRANCH   1  16
BRANCH   6  33
ATOM     33  C   LIG d   1       8.028   1.094  -7.783  0.00  0.00    -0.012 A 
ATOM     34  C   LIG d   1       8.410  -0.144  -8.264  0.00  0.00     0.032 A 
ATOM     35  N   LIG d   1       7.733  -0.728  -9.234  0.00  0.00    -0.263 NA
ATOM     36  H   LIG d   1       9.271  -0.639  -7.841  0.00  0.00     0.083 H 
ATOM     37  C   LIG d   1       6.675  -0.160  -9.781  0.00  0.00     0.028 A 
ATOM     38  C   LIG d   1       6.236   1.078  -9.351  0.00  0.00    -0.043 A 
ATOM     39  H   LIG d   1       6.146  -0.670 -10.573  0.00  0.00     0.083 H 
ATOM     40  C   LIG d   1       6.918   1.720  -8.330  0.00  0.00    -0.054 A 
ATOM     41  H   LIG d   1       5.368   1.537  -9.802  0.00  0.00     0.063 H 
ATOM     42  H   LIG d   1       6.595   2.686  -7.971  0.00  0.00     0.062 H 
ENDBRANCH   6  33
TORSDOF 4
ENDMDL
MODEL 7
REMARK VINA RESULT:      -6.0      3.013      4.977
REMARK  4 active torsions:
REMARK  status: ('A' for Active; 'I' for Inactive)
REMARK    1  A    between atoms: C_4  and  C_7 
REMARK    2  A    between atoms: C_7  and  P_8 
REMARK    3  A    between atoms: P_8  and  N_10 
REMARK    4  A    between atoms: C_15  and  C_17 
ROOT
ATOM      1  N   LIG d   1       4.948  -0.738  -4.716  0.00  0.00    -0.256 NA
ATOM      2  C   LIG d   1       3.713   0.055  -4.663  0.00  0.00     0.005 C 
ATOM      3  C   LIG d   1       3.235   0.160  -3.214  0.00  0.00    -0.040 C 
ATOM      4  C   LIG d   1       2.983  -1.246  -2.661  0.00  0.00    -0.050 C 
ATOM      5  C   LIG d   1       4.272  -2.067  -2.772  0.00  0.00    -0.033 C 
ATOM      6  C   LIG d   1       4.721  -2.107  -4.234  0.00  0.00     0.042 C 
ATOM      7  H   LIG d   1       3.948  -2.581  -4.838  0.00  0.00     0.052 H 
ATOM      8  H   LIG d   1       3.907   1.053  -5.055  0.00  0.00     0.043 H 
ATOM      9  H   LIG d   1       2.945  -0.430  -5.266  0.00  0.00     0.043 H 
ATOM     10  H   LIG d   1       2.309   0.735  -3.177  0.00  0.00     0.028 H 
ATOM     11  H   LIG d   1       3.997   0.656  -2.614  0.00  0.00     0.028 H 
ATOM     12  H   LIG d   1       2.194  -1.728  -3.237  0.00  0.00     0.027 H 
ATOM     13  H   LIG d   1       2.684  -1.178  -1.615  0.00  0.00     0.027 H 
ATOM     14  H   LIG d   1       5.050  -1.605  -2.164  0.00  0.00     0.028 H 
ATOM     15  H   LIG d   1       4.088  -3.082  -2.419  0.00  0.00     0.028 H 
ENDROOT
BRANCH   1  16
ATOM     16  P   LIG d   1       5.595  -0.745  -6.269  0.00  0.00     0.086 P 
ATOM     17  O   LIG d   1       5.139  -1.956  -6.989  0.00  0.00    -0.320 OA
ATOM     18  O   LIG d   1       5.103   0.567  -7.062  0.00  0.00    -0.790 OA
BRANCH  16  19
ATOM     19  C   LIG d   1       7.416  -0.747  -6.169  0.00  0.00     0.027 C 
ATOM     20  H   LIG d   1       7.741  -1.534  -5.488  0.00  0.00     0.039 H 
ATOM     21  H   LIG d   1       7.834  -0.928  -7.160  0.00  0.00     0.039 H 
BRANCH  19  22
ATOM     22  C   LIG d   1       7.892   0.588  -5.659  0.00  0.00    -0.040 A 
ATOM     23  C   LIG d   1       7.790   0.890  -4.314  0.00  0.00    -0.058 A 
ATOM     24  C   LIG d   1       8.228   2.115  -3.845  0.00  0.00    -0.061 A 
ATOM     25  H   LIG d   1       7.368   0.170  -3.629  0.00  0.00     0.062 H 
ATOM     26  C   LIG d   1       8.768   3.037  -4.722  0.00  0.00    -0.062 A 
ATOM     27  H   LIG d   1       8.148   2.351  -2.795  0.00  0.00     0.062 H 
ATOM     28  C   LIG d   1       8.871   2.735  -6.067  0.00  0.00    -0.061 A 
ATOM     29  H   LIG d   1       9.110   3.994  -4.356  0.00  0.00     0.062 H 
ATOM     30  C   LIG d   1       8.438   1.509  -6.535  0.00  0.00    -0.058 A 
ATOM     31  H   LIG d   1       9.294   3.455  -6.752  0.00  0.00     0.062 H 
ATOM     32  H   LIG d   1       8.522   1.271  -7.585  0.00  0.00     0.062 H 
ENDBRANCH  19  22
ENDBRANCH  16  19
ENDBRANCH   1  16
BRANCH   6  33
ATOM     33  C   LIG d   1       6.000  -2.897  -4.344  0.00  0.00    -0.012 A 
ATOM     34  C   LIG d   1       6.068  -4.005  -5.167  0.00  0.00     0.032 A 
ATOM     35  N   LIG d   1       7.183  -4.702  -5.270  0.00  0.00    -0.263 NA
ATOM     36  H   LIG d   1       5.198  -4.304  -5.733  0.00  0.00     0.083 H 
ATOM     37  C   LIG d   1       8.270  -4.374  -4.597  0.00  0.00     0.028 A 
ATOM     38  C   LIG d   1       8.276  -3.278  -3.755  0.00  0.00    -0.043 A 
ATOM     39  H   LIG d   1       9.165  -4.968  -4.708  0.00  0.00     0.083 H 
ATOM     40  C   LIG d   1       7.124  -2.519  -3.625  0.00  0.00    -0.054 A 
ATOM     41  H   LIG d   1       9.170  -3.014  -3.208  0.00  0.00     0.063 H 
ATOM     42  H   LIG d   1       7.101  -1.655  -2.978  0.00  0.00     0.062 H 
ENDBRANCH   6  33
TORSDOF 4
ENDMDL
MODEL 8
REMARK VINA RESULT:      -5.7      3.529      5.619
REMARK  4 active torsions:
REMARK  status: ('A' for Active; 'I' for Inactive)
REMARK    1  A    between atoms: C_4  and  C_7 
REMARK    2  A    between atoms: C_7  and  P_8 
REMARK    3  A    between atoms: P_8  and  N_10 
REMARK    4  A    between atoms: C_15  and  C_17 
ROOT
ATOM      1  N   LIG d   1       7.766   0.590  -6.680  0.00  0.00    -0.256 NA
ATOM      2  C   LIG d   1       6.742   0.487  -7.728  0.00  0.00     0.005 C 
ATOM      3  C   LIG d   1       7.325   0.962  -9.060  0.00  0.00    -0.040 C 
ATOM      4  C   LIG d   1       7.791   2.415  -8.918  0.00  0.00    -0.050 C 
ATOM      5  C   LIG d   1       8.821   2.503  -7.789  0.00  0.00    -0.033 C 
ATOM      6  C   LIG d   1       8.195   1.982  -6.493  0.00  0.00     0.042 C 
ATOM      7  H   LIG d   1       7.333   2.596  -6.234  0.00  0.00     0.052 H 
ATOM      8  H   LIG d   1       6.423  -0.552  -7.822  0.00  0.00     0.043 H 
ATOM      9  H   LIG d   1       5.887   1.107  -7.462  0.00  0.00     0.043 H 
ATOM     10  H   LIG d   1       6.560   0.900  -9.835  0.00  0.00     0.028 H 
ATOM     11  H   LIG d   1       8.172   0.334  -9.333  0.00  0.00     0.028 H 
ATOM     12  H   LIG d   1       6.937   3.049  -8.684  0.00  0.00     0.027 H 
ATOM     13  H   LIG d   1       8.246   2.744  -9.852  0.00  0.00     0.027 H 
ATOM     14  H   LIG d   1       9.691   1.899  -8.042  0.00  0.00     0.028 H 
ATOM     15  H   LIG d   1       9.125   3.541  -7.654  0.00  0.00     0.028 H 
ENDROOT
BRANCH   1  16
ATOM     16  P   LIG d   1       7.218  -0.072  -5.234  0.00  0.00     0.086 P 
ATOM     17  O   LIG d   1       8.351  -0.700  -4.517  0.00  0.00    -0.320 OA
ATOM     18  O   LIG d   1       6.582   1.091  -4.318  0.00  0.00    -0.790 OA
BRANCH  16  19
ATOM     19  C   LIG d   1       5.947  -1.331  -5.584  0.00  0.00     0.027 C 
ATOM     20  H   LIG d   1       5.523  -1.154  -6.573  0.00  0.00     0.039 H 
ATOM     21  H   LIG d   1       6.400  -2.322  -5.555  0.00  0.00     0.039 H 
BRANCH  19  22
ATOM     22  C   LIG d   1       4.857  -1.247  -4.548  0.00  0.00    -0.040 A 
ATOM     23  C   LIG d   1       4.974  -1.949  -3.362  0.00  0.00    -0.058 A 
ATOM     24  C   LIG d   1       3.974  -1.871  -2.410  0.00  0.00    -0.061 A 
ATOM     25  H   LIG d   1       5.847  -2.558  -3.180  0.00  0.00     0.062 H 
ATOM     26  C   LIG d   1       2.858  -1.091  -2.644  0.00  0.00    -0.062 A 
ATOM     27  H   LIG d   1       4.066  -2.418  -1.485  0.00  0.00     0.062 H 
ATOM     28  C   LIG d   1       2.739  -0.389  -3.830  0.00  0.00    -0.061 A 
ATOM     29  H   LIG d   1       2.077  -1.030  -1.901  0.00  0.00     0.062 H 
ATOM     30  C   LIG d   1       3.741  -0.463  -4.779  0.00  0.00    -0.058 A 
ATOM     31  H   LIG d   1       1.867   0.220  -4.012  0.00  0.00     0.062 H 
ATOM     32  H   LIG d   1       3.651   0.089  -5.703  0.00  0.00     0.062 H 
ENDBRANCH  19  22
ENDBRANCH  16  19
ENDBRANCH   1  16
BRANCH   6  33
ATOM     33  C   LIG d   1       9.212   2.049  -5.382  0.00  0.00    -0.012 A 
ATOM     34  C   LIG d   1      10.405   1.359  -5.483  0.00  0.00     0.032 A 
ATOM     35  N   LIG d   1      11.299   1.413  -4.516  0.00  0.00    -0.263 NA
ATOM     36  H   LIG d   1      10.607   0.769  -6.365  0.00  0.00     0.083 H 
ATOM     37  C   LIG d   1      11.095   2.120  -3.421  0.00  0.00     0.028 A 
ATOM     38  C   LIG d   1       9.925   2.836  -3.251  0.00  0.00    -0.043 A 
ATOM     39  H   LIG d   1      11.851   2.141  -2.650  0.00  0.00     0.083 H 
ATOM     40  C   LIG d   1       8.964   2.808  -4.248  0.00  0.00    -0.054 A 
ATOM     41  H   LIG d   1       9.764   3.415  -2.352  0.00  0.00     0.063 H 
ATOM     42  H   LIG d   1       8.042   3.361  -4.144  0.00  0.00     0.062 H 
ENDBRANCH   6  33
TORSDOF 4
ENDMDL
MODEL 9
REMARK VINA RESULT:      -5.6      2.824      4.987
REMARK  4 active torsions:
REMARK  status: ('A' for Active; 'I' for Inactive)
REMARK    1  A    between atoms: C_4  and  C_7 
REMARK    2  A    between atoms: C_7  and  P_8 
REMARK    3  A    between atoms: P_8  and  N_10 
REMARK    4  A    between atoms: C_15  and  C_17 
ROOT
ATOM      1  N   LIG d   1       5.307   0.033  -6.402  0.00  0.00    -0.256 NA
ATOM      2  C   LIG d   1       5.309   0.139  -7.867  0.00  0.00     0.005 C 
ATOM      3  C   LIG d   1       4.132   1.006  -8.318  0.00  0.00    -0.040 C 
ATOM      4  C   LIG d   1       2.823   0.373  -7.836  0.00  0.00    -0.050 C 
ATOM      5  C   LIG d   1       2.866   0.230  -6.312  0.00  0.00    -0.033 C 
ATOM      6  C   LIG d   1       4.080  -0.614  -5.918  0.00  0.00     0.042 C 
ATOM      7  H   LIG d   1       3.993  -1.606  -6.364  0.00  0.00     0.052 H 
ATOM      8  H   LIG d   1       6.243   0.595  -8.196  0.00  0.00     0.043 H 
ATOM      9  H   LIG d   1       5.216  -0.856  -8.302  0.00  0.00     0.043 H 
ATOM     10  H   LIG d   1       4.125   1.071  -9.407  0.00  0.00     0.028 H 
ATOM     11  H   LIG d   1       4.231   2.004  -7.893  0.00  0.00     0.028 H 
ATOM     12  H   LIG d   1       2.705  -0.610  -8.291  0.00  0.00     0.027 H 
ATOM     13  H   LIG d   1       1.985   1.010  -8.118  0.00  0.00     0.027 H 
ATOM     14  H   LIG d   1       2.945   1.216  -5.856  0.00  0.00     0.028 H 
ATOM     15  H   LIG d   1       1.955  -0.259  -5.966  0.00  0.00     0.028 H 
ENDROOT
BRANCH   1  16
ATOM     16  P   LIG d   1       6.674  -0.780  -5.853  0.00  0.00     0.086 P 
ATOM     17  O   LIG d   1       6.934  -0.414  -4.442  0.00  0.00    -0.320 OA
ATOM     18  O   LIG d   1       6.434  -2.368  -5.960  0.00  0.00    -0.790 OA
BRANCH  16  19
ATOM     19  C   LIG d   1       8.110  -0.313  -6.876  0.00  0.00     0.027 C 
ATOM     20  H   LIG d   1       8.736  -1.189  -7.043  0.00  0.00     0.039 H 
ATOM     21  H   LIG d   1       7.762   0.073  -7.835  0.00  0.00     0.039 H 
BRANCH  19  22
ATOM     22  C   LIG d   1       8.908   0.749  -6.166  0.00  0.00    -0.040 A 
ATOM     23  C   LIG d   1      10.055   0.405  -5.476  0.00  0.00    -0.058 A 
ATOM     24  C   LIG d   1      10.789   1.380  -4.825  0.00  0.00    -0.061 A 
ATOM     25  H   LIG d   1      10.379  -0.625  -5.445  0.00  0.00     0.062 H 
ATOM     26  C   LIG d   1      10.375   2.698  -4.865  0.00  0.00    -0.062 A 
ATOM     27  H   LIG d   1      11.685   1.111  -4.286  0.00  0.00     0.062 H 
ATOM     28  C   LIG d   1       9.228   3.042  -5.555  0.00  0.00    -0.061 A 
ATOM     29  H   LIG d   1      10.948   3.459  -4.356  0.00  0.00     0.062 H 
ATOM     30  C   LIG d   1       8.498   2.069  -6.210  0.00  0.00    -0.058 A 
ATOM     31  H   LIG d   1       8.905   4.072  -5.587  0.00  0.00     0.062 H 
ATOM     32  H   LIG d   1       7.604   2.338  -6.754  0.00  0.00     0.062 H 
ENDBRANCH  19  22
ENDBRANCH  16  19
ENDBRANCH   1  16
BRANCH   6  33
ATOM     33  C   LIG d   1       4.138  -0.742  -4.417  0.00  0.00    -0.012 A 
ATOM     34  C   LIG d   1       4.252   0.384  -3.624  0.00  0.00     0.032 A 
ATOM     35  N   LIG d   1       4.302   0.280  -2.310  0.00  0.00    -0.263 NA
ATOM     36  H   LIG d   1       4.299   1.359  -4.085  0.00  0.00     0.083 H 
ATOM     37  C   LIG d   1       4.247  -0.890  -1.704  0.00  0.00     0.028 A 
ATOM     38  C   LIG d   1       4.134  -2.058  -2.433  0.00  0.00    -0.043 A 
ATOM     39  H   LIG d   1       4.291  -0.935  -0.625  0.00  0.00     0.083 H 
ATOM     40  C   LIG d   1       4.072  -1.990  -3.815  0.00  0.00    -0.054 A 
ATOM     41  H   LIG d   1       4.088  -3.014  -1.930  0.00  0.00     0.063 H 
ATOM     42  H   LIG d   1       3.979  -2.886  -4.410  0.00  0.00     0.062 H 
ENDBRANCH   6  33
TORSDOF 4
ENDMDL
