MODEL 1
REMARK VINA RESULT:      -8.4      0.000      0.000
REMARK  7 active torsions:
REMARK  status: ('A' for Active; 'I' for Inactive)
REMARK    1  A    between atoms: C_1  and  C_2 
REMARK    2  A    between atoms: C_16  and  C_19 
REMARK    3  A    between atoms: C_19  and  C_20 
REMARK    4  A    between atoms: C_20  and  C_21 
REMARK       I    between atoms: C_21  and  N_23 
REMARK    5  A    between atoms: N_26  and  C_29 
REMARK    6  A    between atoms: C_29  and  C_30 
REMARK    7  A    between atoms: C_30  and  C_31 
ROOT
ATOM      1  C   LIG d   1       7.528  -5.981  -5.631  0.00  0.00    -0.027 A 
ATOM      2  C   LIG d   1       8.462  -5.514  -4.728  0.00  0.00    -0.039 A 
ATOM      3  C   LIG d   1       8.320  -4.261  -4.161  0.00  0.00     0.042 A 
ATOM      4  C   LIG d   1       7.235  -3.470  -4.502  0.00  0.00    -0.032 A 
ATOM      5  C   LIG d   1       6.303  -3.931  -5.402  0.00  0.00     0.036 A 
ATOM      6  C   LIG d   1       6.438  -5.190  -5.983  0.00  0.00     0.046 A 
ATOM      7  N   LIG d   1       5.380  -5.432  -6.862  0.00  0.00    -0.280 N 
ATOM      8  C   LIG d   1       4.520  -4.396  -6.922  0.00  0.00     0.274 A 
ATOM      9  O   LIG d   1       3.516  -4.326  -7.598  0.00  0.00    -0.269 OA
ATOM     10  C   LIG d   1       5.043  -3.348  -5.978  0.00  0.00     0.106 A 
ATOM     11  C   LIG d   1       5.319  -2.031  -6.716  0.00  0.00     0.111 A 
ATOM     12  H   LIG d   1       6.347  -1.956  -7.069  0.00  0.00     0.047 H 
ATOM     13  C   LIG d   1       4.949  -0.923  -5.690  0.00  0.00     0.096 A 
ATOM     14  H   LIG d   1       5.771  -0.232  -5.500  0.00  0.00     0.046 H 
ATOM     15  C   LIG d   1       4.513  -1.688  -4.422  0.00  0.00    -0.009 C 
ATOM     16  H   LIG d   1       5.349  -1.784  -3.730  0.00  0.00     0.086 H 
ATOM     17  N   LIG d   1       4.066  -3.022  -4.922  0.00  0.00     0.245 N 
ATOM     18  C   LIG d   1       3.753  -0.249  -6.320  0.00  0.00     0.231 A 
ATOM     19  O   LIG d   1       3.139   0.679  -5.839  0.00  0.00    -0.275 OA
ATOM     20  N   LIG d   1       3.479  -0.833  -7.492  0.00  0.00    -0.241 N 
ATOM     21  C   LIG d   1       4.307  -1.850  -7.825  0.00  0.00     0.232 A 
ATOM     22  O   LIG d   1       4.253  -2.513  -8.839  0.00  0.00    -0.275 OA
ATOM     23 CL   LIG d   1       9.497  -3.680  -3.025  0.00  0.00    -0.084 Cl
ATOM     24  H   LIG d   1       9.308  -6.131  -4.462  0.00  0.00     0.064 H 
ATOM     25  H   LIG d   1       7.121  -2.490  -4.061  0.00  0.00     0.064 H 
ATOM     26  H   LIG d   1       5.277  -6.250  -7.373  0.00  0.00     0.155 HD
ATOM     27  H   LIG d   1       3.135  -2.973  -5.306  0.00  0.00     0.203 HD
ATOM     28  H   LIG d   1       4.109  -3.704  -4.180  0.00  0.00     0.203 HD
ENDROOT
BRANCH  15  29
ATOM     29  C   LIG d   1       3.344  -0.970  -3.744  0.00  0.00    -0.001 C 
ATOM     30  H   LIG d   1       3.111  -0.057  -4.292  0.00  0.00     0.033 H 
ATOM     31  H   LIG d   1       2.471  -1.623  -3.738  0.00  0.00     0.033 H 
BRANCH  29  32
ATOM     32  C   LIG d   1       3.727  -0.618  -2.305  0.00  0.00     0.029 C 
ATOM     33  H   LIG d   1       2.869  -0.778  -1.651  0.00  0.00     0.036 H 
ATOM     34  H   LIG d   1       4.552  -1.253  -1.983  0.00  0.00     0.036 H 
BRANCH  32  35
ATOM     35  C   LIG d   1       4.147   0.827  -2.236  0.00  0.00     0.211 C 
ATOM     36  O   LIG d   1       4.881   1.204  -1.347  0.00  0.00    -0.276 OA
ATOM     37  N   LIG d   1       3.707   1.702  -3.162  0.00  0.00    -0.329 N 
ATOM     38  H   LIG d   1       3.120   1.402  -3.874  0.00  0.00     0.145 HD
ATOM     39  H   LIG d   1       3.977   2.632  -3.119  0.00  0.00     0.145 HD
ENDBRANCH  32  35
ENDBRANCH  29  32
ENDBRANCH  15  29
BRANCH   1  40
ATOM     40  C   LIG d   1       7.693  -7.348  -6.242  0.00  0.00    -0.038 C 
ATOM     41  H   LIG d   1       6.766  -7.910  -6.131  0.00  0.00     0.028 H 
ATOM     42  H   LIG d   1       7.932  -7.247  -7.300  0.00  0.00     0.028 H 
ATOM     43  H   LIG d   1       8.501  -7.877  -5.736  0.00  0.00     0.028 H 
ENDBRANCH   1  40
BRANCH  20  44
ATOM     44  C   LIG d   1       2.374  -0.403  -8.352  0.00  0.00     0.026 C 
ATOM     45  H   LIG d   1       1.985  -1.261  -8.900  0.00  0.00     0.047 H 
ATOM     46  H   LIG d   1       1.582   0.026  -7.739  0.00  0.00     0.047 H 
BRANCH  44  47
ATOM     47  C   LIG d   1       2.878   0.648  -9.343  0.00  0.00    -0.011 C 
ATOM     48  H   LIG d   1       2.157   1.462  -9.408  0.00  0.00     0.033 H 
ATOM     49  H   LIG d   1       3.837   1.040  -9.001  0.00  0.00     0.033 H 
BRANCH  47  50
ATOM     50  C   LIG d   1       3.048   0.018 -10.701  0.00  0.00    -0.046 A 
ATOM     51  C   LIG d   1       4.160   0.315 -11.467  0.00  0.00    -0.059 A 
ATOM     52  C   LIG d   1       4.318  -0.267 -12.711  0.00  0.00    -0.061 A 
ATOM     53  H   LIG d   1       4.907   0.999 -11.092  0.00  0.00     0.062 H 
ATOM     54  C   LIG d   1       3.360  -1.138 -13.193  0.00  0.00    -0.062 A 
ATOM     55  H   LIG d   1       5.189  -0.038 -13.307  0.00  0.00     0.062 H 
ATOM     56  C   LIG d   1       2.245  -1.432 -12.430  0.00  0.00    -0.061 A 
ATOM     57  H   LIG d   1       3.481  -1.591 -14.166  0.00  0.00     0.062 H 
ATOM     58  C   LIG d   1       2.089  -0.853 -11.184  0.00  0.00    -0.059 A 
ATOM     59  H   LIG d   1       1.497  -2.113 -12.806  0.00  0.00     0.062 H 
ATOM     60  H   LIG d   1       1.219  -1.083 -10.586  0.00  0.00     0.062 H 
ENDBRANCH  47  50
ENDBRANCH  44  47
ENDBRANCH  20  44
TORSDOF 7
ENDMDL
MODEL 2
REMARK VINA RESULT:      -7.5      2.998      7.205
REMARK  7 active torsions:
REMARK  status: ('A' for Active; 'I' for Inactive)
REMARK    1  A    between atoms: C_1  and  C_2 
REMARK    2  A    between atoms: C_16  and  C_19 
REMARK    3  A    between atoms: C_19  and  C_20 
REMARK    4  A    between atoms: C_20  and  C_21 
REMARK       I    between atoms: C_21  and  N_23 
REMARK    5  A    between atoms: N_26  and  C_29 
REMARK    6  A    between atoms: C_29  and  C_30 
REMARK    7  A    between atoms: C_30  and  C_31 
ROOT
ATOM      1  C   LIG d   1       2.073  -1.822 -10.225  0.00  0.00    -0.027 A 
ATOM      2  C   LIG d   1       2.184  -2.916 -11.058  0.00  0.00    -0.039 A 
ATOM      3  C   LIG d   1       3.013  -3.970 -10.720  0.00  0.00     0.042 A 
ATOM      4  C   LIG d   1       3.737  -3.926  -9.539  0.00  0.00    -0.032 A 
ATOM      5  C   LIG d   1       3.629  -2.836  -8.707  0.00  0.00     0.036 A 
ATOM      6  C   LIG d   1       2.801  -1.767  -9.040  0.00  0.00     0.046 A 
ATOM      7  N   LIG d   1       2.862  -0.783  -8.050  0.00  0.00    -0.280 N 
ATOM      8  C   LIG d   1       3.699  -1.118  -7.049  0.00  0.00     0.274 A 
ATOM      9  O   LIG d   1       3.950  -0.459  -6.062  0.00  0.00    -0.269 OA
ATOM     10  C   LIG d   1       4.256  -2.474  -7.389  0.00  0.00     0.106 A 
ATOM     11  C   LIG d   1       5.786  -2.433  -7.487  0.00  0.00     0.111 A 
ATOM     12  H   LIG d   1       6.137  -2.243  -8.501  0.00  0.00     0.047 H 
ATOM     13  C   LIG d   1       6.250  -3.809  -6.934  0.00  0.00     0.096 A 
ATOM     14  H   LIG d   1       6.872  -4.360  -7.641  0.00  0.00     0.046 H 
ATOM     15  C   LIG d   1       4.946  -4.555  -6.584  0.00  0.00    -0.009 C 
ATOM     16  H   LIG d   1       4.645  -5.202  -7.408  0.00  0.00     0.086 H 
ATOM     17  N   LIG d   1       3.944  -3.473  -6.350  0.00  0.00     0.245 N 
ATOM     18  C   LIG d   1       6.990  -3.445  -5.668  0.00  0.00     0.231 A 
ATOM     19  O   LIG d   1       7.515  -4.235  -4.912  0.00  0.00    -0.275 OA
ATOM     20  N   LIG d   1       6.977  -2.117  -5.511  0.00  0.00    -0.241 N 
ATOM     21  C   LIG d   1       6.331  -1.437  -6.487  0.00  0.00     0.232 A 
ATOM     22  O   LIG d   1       6.203  -0.234  -6.555  0.00  0.00    -0.275 OA
ATOM     23 CL   LIG d   1       3.147  -5.345 -11.771  0.00  0.00    -0.084 Cl
ATOM     24  H   LIG d   1       1.619  -2.951 -11.978  0.00  0.00     0.064 H 
ATOM     25  H   LIG d   1       4.385  -4.747  -9.272  0.00  0.00     0.064 H 
ATOM     26  H   LIG d   1       2.361   0.047  -8.081  0.00  0.00     0.155 HD
ATOM     27  H   LIG d   1       4.052  -3.071  -5.431  0.00  0.00     0.203 HD
ATOM     28  H   LIG d   1       3.009  -3.831  -6.474  0.00  0.00     0.203 HD
ENDROOT
BRANCH  15  29
ATOM     29  C   LIG d   1       5.129  -5.377  -5.306  0.00  0.00    -0.001 C 
ATOM     30  H   LIG d   1       6.154  -5.270  -4.950  0.00  0.00     0.033 H 
ATOM     31  H   LIG d   1       4.439  -5.019  -4.542  0.00  0.00     0.033 H 
BRANCH  29  32
ATOM     32  C   LIG d   1       4.844  -6.851  -5.601  0.00  0.00     0.029 C 
ATOM     33  H   LIG d   1       4.003  -7.187  -4.994  0.00  0.00     0.036 H 
ATOM     34  H   LIG d   1       4.599  -6.969  -6.658  0.00  0.00     0.036 H 
BRANCH  32  35
ATOM     35  C   LIG d   1       6.061  -7.675  -5.272  0.00  0.00     0.211 C 
ATOM     36  O   LIG d   1       5.936  -8.831  -4.931  0.00  0.00    -0.276 OA
ATOM     37  N   LIG d   1       7.289  -7.126  -5.355  0.00  0.00    -0.329 N 
ATOM     38  H   LIG d   1       7.390  -6.200  -5.628  0.00  0.00     0.145 HD
ATOM     39  H   LIG d   1       8.073  -7.655  -5.143  0.00  0.00     0.145 HD
ENDBRANCH  32  35
ENDBRANCH  29  32
ENDBRANCH  15  29
BRANCH   1  40
ATOM     40  C   LIG d   1       1.165  -0.679 -10.603  0.00  0.00    -0.038 C 
ATOM     41  H   LIG d   1       1.086   0.013  -9.766  0.00  0.00     0.028 H 
ATOM     42  H   LIG d   1       1.577  -0.159 -11.468  0.00  0.00     0.028 H 
ATOM     43  H   LIG d   1       0.177  -1.068 -10.849  0.00  0.00     0.028 H 
ENDBRANCH   1  40
BRANCH  20  44
ATOM     44  C   LIG d   1       7.617  -1.447  -4.376  0.00  0.00     0.026 C 
ATOM     45  H   LIG d   1       8.677  -1.696  -4.357  0.00  0.00     0.047 H 
ATOM     46  H   LIG d   1       7.500  -0.368  -4.478  0.00  0.00     0.047 H 
BRANCH  44  47
ATOM     47  C   LIG d   1       6.960  -1.910  -3.074  0.00  0.00    -0.011 C 
ATOM     48  H   LIG d   1       6.816  -2.990  -3.104  0.00  0.00     0.033 H 
ATOM     49  H   LIG d   1       7.602  -1.654  -2.232  0.00  0.00     0.033 H 
BRANCH  47  50
ATOM     50  C   LIG d   1       5.625  -1.229  -2.914  0.00  0.00    -0.046 A 
ATOM     51  C   LIG d   1       4.463  -1.978  -2.909  0.00  0.00    -0.059 A 
ATOM     52  C   LIG d   1       3.239  -1.353  -2.758  0.00  0.00    -0.061 A 
ATOM     53  H   LIG d   1       4.512  -3.051  -3.020  0.00  0.00     0.062 H 
ATOM     54  C   LIG d   1       3.177   0.020  -2.622  0.00  0.00    -0.062 A 
ATOM     55  H   LIG d   1       2.332  -1.939  -2.749  0.00  0.00     0.062 H 
ATOM     56  C   LIG d   1       4.338   0.771  -2.632  0.00  0.00    -0.061 A 
ATOM     57  H   LIG d   1       2.220   0.509  -2.506  0.00  0.00     0.062 H 
ATOM     58  C   LIG d   1       5.562   0.146  -2.779  0.00  0.00    -0.059 A 
ATOM     59  H   LIG d   1       4.289   1.844  -2.525  0.00  0.00     0.062 H 
ATOM     60  H   LIG d   1       6.470   0.731  -2.786  0.00  0.00     0.062 H 
ENDBRANCH  47  50
ENDBRANCH  44  47
ENDBRANCH  20  44
TORSDOF 7
ENDMDL
MODEL 3
REMARK VINA RESULT:      -7.4      3.731      6.296
REMARK  7 active torsions:
REMARK  status: ('A' for Active; 'I' for Inactive)
REMARK    1  A    between atoms: C_1  and  C_2 
REMARK    2  A    between atoms: C_16  and  C_19 
REMARK    3  A    between atoms: C_19  and  C_20 
REMARK    4  A    between atoms: C_20  and  C_21 
REMARK       I    between atoms: C_21  and  N_23 
REMARK    5  A    between atoms: N_26  and  C_29 
REMARK    6  A    between atoms: C_29  and  C_30 
REMARK    7  A    between atoms: C_30  and  C_31 
ROOT
ATOM      1  C   LIG d   1       3.309  -3.489  -9.303  0.00  0.00    -0.027 A 
ATOM      2  C   LIG d   1       3.441  -4.828  -8.997  0.00  0.00    -0.039 A 
ATOM      3  C   LIG d   1       3.985  -5.218  -7.787  0.00  0.00     0.042 A 
ATOM      4  C   LIG d   1       4.400  -4.259  -6.878  0.00  0.00    -0.032 A 
ATOM      5  C   LIG d   1       4.272  -2.923  -7.179  0.00  0.00     0.036 A 
ATOM      6  C   LIG d   1       3.730  -2.519  -8.397  0.00  0.00     0.046 A 
ATOM      7  N   LIG d   1       3.708  -1.124  -8.476  0.00  0.00    -0.280 N 
ATOM      8  C   LIG d   1       4.215  -0.544  -7.371  0.00  0.00     0.274 A 
ATOM      9  O   LIG d   1       4.323   0.646  -7.162  0.00  0.00    -0.269 OA
ATOM     10  C   LIG d   1       4.613  -1.658  -6.442  0.00  0.00     0.106 A 
ATOM     11  C   LIG d   1       6.108  -1.589  -6.106  0.00  0.00     0.111 A 
ATOM     12  H   LIG d   1       6.718  -2.188  -6.782  0.00  0.00     0.047 H 
ATOM     13  C   LIG d   1       6.198  -2.062  -4.628  0.00  0.00     0.096 A 
ATOM     14  H   LIG d   1       6.875  -2.907  -4.497  0.00  0.00     0.046 H 
ATOM     15  C   LIG d   1       4.746  -2.398  -4.230  0.00  0.00    -0.009 C 
ATOM     16  H   LIG d   1       4.552  -3.463  -4.360  0.00  0.00     0.086 H 
ATOM     17  N   LIG d   1       3.904  -1.578  -5.151  0.00  0.00     0.245 N 
ATOM     18  C   LIG d   1       6.660  -0.825  -3.893  0.00  0.00     0.231 A 
ATOM     19  O   LIG d   1       6.854  -0.753  -2.699  0.00  0.00    -0.275 OA
ATOM     20  N   LIG d   1       6.822   0.176  -4.765  0.00  0.00    -0.241 N 
ATOM     21  C   LIG d   1       6.548  -0.143  -6.051  0.00  0.00     0.232 A 
ATOM     22  O   LIG d   1       6.634   0.600  -7.006  0.00  0.00    -0.275 OA
ATOM     23 CL   LIG d   1       4.146  -6.904  -7.408  0.00  0.00    -0.084 Cl
ATOM     24  H   LIG d   1       3.116  -5.575  -9.706  0.00  0.00     0.064 H 
ATOM     25  H   LIG d   1       4.825  -4.561  -5.932  0.00  0.00     0.064 H 
ATOM     26  H   LIG d   1       3.369  -0.631  -9.239  0.00  0.00     0.155 HD
ATOM     27  H   LIG d   1       3.850  -0.620  -4.838  0.00  0.00     0.203 HD
ATOM     28  H   LIG d   1       2.981  -1.978  -5.230  0.00  0.00     0.203 HD
ENDROOT
BRANCH  15  29
ATOM     29  C   LIG d   1       4.482  -1.985  -2.780  0.00  0.00    -0.001 C 
ATOM     30  H   LIG d   1       4.293  -2.874  -2.179  0.00  0.00     0.033 H 
ATOM     31  H   LIG d   1       5.354  -1.460  -2.388  0.00  0.00     0.033 H 
BRANCH  29  32
ATOM     32  C   LIG d   1       3.264  -1.063  -2.725  0.00  0.00     0.029 C 
ATOM     33  H   LIG d   1       2.638  -1.234  -3.601  0.00  0.00     0.036 H 
ATOM     34  H   LIG d   1       2.690  -1.272  -1.822  0.00  0.00     0.036 H 
BRANCH  32  35
ATOM     35  C   LIG d   1       3.720   0.373  -2.709  0.00  0.00     0.211 C 
ATOM     36  O   LIG d   1       3.475   1.098  -3.649  0.00  0.00    -0.276 OA
ATOM     37  N   LIG d   1       4.402   0.851  -1.649  0.00  0.00    -0.329 N 
ATOM     38  H   LIG d   1       4.598   0.272  -0.896  0.00  0.00     0.145 HD
ATOM     39  H   LIG d   1       4.697   1.775  -1.638  0.00  0.00     0.145 HD
ENDBRANCH  32  35
ENDBRANCH  29  32
ENDBRANCH  15  29
BRANCH   1  40
ATOM     40  C   LIG d   1       2.715  -3.075 -10.624  0.00  0.00    -0.038 C 
ATOM     41  H   LIG d   1       2.959  -2.032 -10.822  0.00  0.00     0.028 H 
ATOM     42  H   LIG d   1       3.123  -3.700 -11.418  0.00  0.00     0.028 H 
ATOM     43  H   LIG d   1       1.632  -3.194 -10.588  0.00  0.00     0.028 H 
ENDBRANCH   1  40
BRANCH  20  44
ATOM     44  C   LIG d   1       7.269   1.512  -4.363  0.00  0.00     0.026 C 
ATOM     45  H   LIG d   1       6.851   2.255  -5.043  0.00  0.00     0.047 H 
ATOM     46  H   LIG d   1       6.930   1.718  -3.348  0.00  0.00     0.047 H 
BRANCH  44  47
ATOM     47  C   LIG d   1       8.797   1.576  -4.414  0.00  0.00    -0.011 C 
ATOM     48  H   LIG d   1       9.213   0.984  -3.599  0.00  0.00     0.033 H 
ATOM     49  H   LIG d   1       9.145   1.177  -5.367  0.00  0.00     0.033 H 
BRANCH  47  50
ATOM     50  C   LIG d   1       9.244   3.008  -4.275  0.00  0.00    -0.046 A 
ATOM     51  C   LIG d   1       9.234   3.846  -5.375  0.00  0.00    -0.059 A 
ATOM     52  C   LIG d   1       9.640   5.161  -5.245  0.00  0.00    -0.061 A 
ATOM     53  H   LIG d   1       8.904   3.474  -6.334  0.00  0.00     0.062 H 
ATOM     54  C   LIG d   1      10.066   5.635  -4.019  0.00  0.00    -0.062 A 
ATOM     55  H   LIG d   1       9.627   5.817  -6.103  0.00  0.00     0.062 H 
ATOM     56  C   LIG d   1      10.082   4.797  -2.920  0.00  0.00    -0.061 A 
ATOM     57  H   LIG d   1      10.386   6.662  -3.918  0.00  0.00     0.062 H 
ATOM     58  C   LIG d   1       9.672   3.483  -3.048  0.00  0.00    -0.059 A 
ATOM     59  H   LIG d   1      10.414   5.167  -1.962  0.00  0.00     0.062 H 
ATOM     60  H   LIG d   1       9.683   2.827  -2.190  0.00  0.00     0.062 H 
ENDBRANCH  47  50
ENDBRANCH  44  47
ENDBRANCH  20  44
TORSDOF 7
ENDMDL
MODEL 4
REMARK VINA RESULT:      -7.2      3.462      6.459
REMARK  7 active torsions:
REMARK  status: ('A' for Active; 'I' for Inactive)
REMARK    1  A    between atoms: C_1  and  C_2 
REMARK    2  A    between atoms: C_16  and  C_19 
REMARK    3  A    between atoms: C_19  and  C_20 
REMARK    4  A    between atoms: C_20  and  C_21 
REMARK       I    between atoms: C_21  and  N_23 
REMARK    5  A    between atoms: N_26  and  C_29 
REMARK    6  A    between atoms: C_29  and  C_30 
REMARK    7  A    between atoms: C_30  and  C_31 
ROOT
ATOM      1  C   LIG d   1       9.919  -1.897  -8.965  0.00  0.00    -0.027 A 
ATOM      2  C   LIG d   1       9.801  -3.009  -9.773  0.00  0.00    -0.039 A 
ATOM      3  C   LIG d   1       8.557  -3.422 -10.215  0.00  0.00     0.042 A 
ATOM      4  C   LIG d   1       7.425  -2.714  -9.845  0.00  0.00    -0.032 A 
ATOM      5  C   LIG d   1       7.540  -1.605  -9.040  0.00  0.00     0.036 A 
ATOM      6  C   LIG d   1       8.786  -1.184  -8.584  0.00  0.00     0.046 A 
ATOM      7  N   LIG d   1       8.648  -0.048  -7.783  0.00  0.00    -0.280 N 
ATOM      8  C   LIG d   1       7.362   0.334  -7.658  0.00  0.00     0.274 A 
ATOM      9  O   LIG d   1       6.946   1.280  -7.024  0.00  0.00    -0.269 OA
ATOM     10  C   LIG d   1       6.544  -0.636  -8.465  0.00  0.00     0.106 A 
ATOM     11  C   LIG d   1       5.508  -1.349  -7.586  0.00  0.00     0.111 A 
ATOM     12  H   LIG d   1       5.879  -2.290  -7.181  0.00  0.00     0.047 H 
ATOM     13  C   LIG d   1       4.272  -1.534  -8.510  0.00  0.00     0.096 A 
ATOM     14  H   LIG d   1       3.957  -2.574  -8.591  0.00  0.00     0.046 H 
ATOM     15  C   LIG d   1       4.699  -0.935  -9.867  0.00  0.00    -0.009 C 
ATOM     16  H   LIG d   1       5.071  -1.719 -10.527  0.00  0.00     0.086 H 
ATOM     17  N   LIG d   1       5.776   0.041  -9.526  0.00  0.00     0.245 N 
ATOM     18  C   LIG d   1       3.223  -0.654  -7.869  0.00  0.00     0.231 A 
ATOM     19  O   LIG d   1       2.094  -0.499  -8.281  0.00  0.00    -0.275 OA
ATOM     20  N   LIG d   1       3.734  -0.077  -6.776  0.00  0.00    -0.241 N 
ATOM     21  C   LIG d   1       5.020  -0.404  -6.511  0.00  0.00     0.232 A 
ATOM     22  O   LIG d   1       5.679  -0.009  -5.573  0.00  0.00    -0.275 OA
ATOM     23 CL   LIG d   1       8.415  -4.821 -11.233  0.00  0.00    -0.084 Cl
ATOM     24  H   LIG d   1      10.684  -3.560 -10.062  0.00  0.00     0.064 H 
ATOM     25  H   LIG d   1       6.452  -3.034 -10.189  0.00  0.00     0.064 H 
ATOM     26  H   LIG d   1       9.392   0.412  -7.363  0.00  0.00     0.155 HD
ATOM     27  H   LIG d   1       5.386   0.906  -9.181  0.00  0.00     0.203 HD
ATOM     28  H   LIG d   1       6.360   0.212 -10.330  0.00  0.00     0.203 HD
ENDROOT
BRANCH  15  29
ATOM     29  C   LIG d   1       3.524  -0.206 -10.521  0.00  0.00    -0.001 C 
ATOM     30  H   LIG d   1       3.181  -0.774 -11.386  0.00  0.00     0.033 H 
ATOM     31  H   LIG d   1       2.710  -0.111  -9.802  0.00  0.00     0.033 H 
BRANCH  29  32
ATOM     32  C   LIG d   1       3.973   1.185 -10.971  0.00  0.00     0.029 C 
ATOM     33  H   LIG d   1       5.009   1.143 -11.306  0.00  0.00     0.036 H 
ATOM     34  H   LIG d   1       3.339   1.524 -11.791  0.00  0.00     0.036 H 
BRANCH  32  35
ATOM     35  C   LIG d   1       3.858   2.147  -9.817  0.00  0.00     0.211 C 
ATOM     36  O   LIG d   1       4.831   2.769  -9.447  0.00  0.00    -0.276 OA
ATOM     37  N   LIG d   1       2.675   2.316  -9.195  0.00  0.00    -0.329 N 
ATOM     38  H   LIG d   1       1.896   1.818  -9.490  0.00  0.00     0.145 HD
ATOM     39  H   LIG d   1       2.600   2.934  -8.452  0.00  0.00     0.145 HD
ENDBRANCH  32  35
ENDBRANCH  29  32
ENDBRANCH  15  29
BRANCH   1  40
ATOM     40  C   LIG d   1      11.280  -1.456  -8.489  0.00  0.00    -0.038 C 
ATOM     41  H   LIG d   1      11.651  -2.161  -7.746  0.00  0.00     0.028 H 
ATOM     42  H   LIG d   1      11.967  -1.422  -9.334  0.00  0.00     0.028 H 
ATOM     43  H   LIG d   1      11.204  -0.464  -8.043  0.00  0.00     0.028 H 
ENDBRANCH   1  40
BRANCH  20  44
ATOM     44  C   LIG d   1       2.963   0.835  -5.928  0.00  0.00     0.026 C 
ATOM     45  H   LIG d   1       3.641   1.516  -5.415  0.00  0.00     0.047 H 
ATOM     46  H   LIG d   1       2.270   1.408  -6.545  0.00  0.00     0.047 H 
BRANCH  44  47
ATOM     47  C   LIG d   1       2.176   0.026  -4.894  0.00  0.00    -0.011 C 
ATOM     48  H   LIG d   1       1.277   0.574  -4.611  0.00  0.00     0.033 H 
ATOM     49  H   LIG d   1       1.894  -0.936  -5.324  0.00  0.00     0.033 H 
BRANCH  47  50
ATOM     50  C   LIG d   1       3.032  -0.200  -3.675  0.00  0.00    -0.046 A 
ATOM     51  C   LIG d   1       3.546   0.881  -2.981  0.00  0.00    -0.059 A 
ATOM     52  C   LIG d   1       4.327   0.673  -1.860  0.00  0.00    -0.061 A 
ATOM     53  H   LIG d   1       3.333   1.886  -3.314  0.00  0.00     0.062 H 
ATOM     54  C   LIG d   1       4.603  -0.613  -1.438  0.00  0.00    -0.062 A 
ATOM     55  H   LIG d   1       4.724   1.517  -1.316  0.00  0.00     0.062 H 
ATOM     56  C   LIG d   1       4.093  -1.694  -2.134  0.00  0.00    -0.061 A 
ATOM     57  H   LIG d   1       5.216  -0.775  -0.563  0.00  0.00     0.062 H 
ATOM     58  C   LIG d   1       3.308  -1.487  -3.253  0.00  0.00    -0.059 A 
ATOM     59  H   LIG d   1       4.308  -2.699  -1.804  0.00  0.00     0.062 H 
ATOM     60  H   LIG d   1       2.909  -2.331  -3.796  0.00  0.00     0.062 H 
ENDBRANCH  47  50
ENDBRANCH  44  47
ENDBRANCH  20  44
TORSDOF 7
ENDMDL
MODEL 5
REMARK VINA RESULT:      -7.0      3.990      7.346
REMARK  7 active torsions:
REMARK  status: ('A' for Active; 'I' for Inactive)
REMARK    1  A    between atoms: C_1  and  C_2 
REMARK    2  A    between atoms: C_16  and  C_19 
REMARK    3  A    between atoms: C_19  and  C_20 
REMARK    4  A    between atoms: C_20  and  C_21 
REMARK       I    between atoms: C_21  and  N_23 
REMARK    5  A    between atoms: N_26  and  C_29 
REMARK    6  A    between atoms: C_29  and  C_30 
REMARK    7  A    between atoms: C_30  and  C_31 
ROOT
ATOM      1  C   LIG d   1       9.784   3.751  -6.388  0.00  0.00    -0.027 A 
ATOM      2  C   LIG d   1      10.358   3.769  -7.642  0.00  0.00    -0.039 A 
ATOM      3  C   LIG d   1      10.054   2.782  -8.563  0.00  0.00     0.042 A 
ATOM      4  C   LIG d   1       9.169   1.772  -8.223  0.00  0.00    -0.032 A 
ATOM      5  C   LIG d   1       8.596   1.751  -6.973  0.00  0.00     0.036 A 
ATOM      6  C   LIG d   1       8.899   2.736  -6.036  0.00  0.00     0.046 A 
ATOM      7  N   LIG d   1       8.204   2.500  -4.847  0.00  0.00    -0.280 N 
ATOM      8  C   LIG d   1       7.438   1.394  -4.916  0.00  0.00     0.274 A 
ATOM      9  O   LIG d   1       6.731   0.947  -4.038  0.00  0.00    -0.269 OA
ATOM     10  C   LIG d   1       7.624   0.825  -6.296  0.00  0.00     0.106 A 
ATOM     11  C   LIG d   1       8.164  -0.609  -6.233  0.00  0.00     0.111 A 
ATOM     12  H   LIG d   1       9.252  -0.650  -6.274  0.00  0.00     0.047 H 
ATOM     13  C   LIG d   1       7.486  -1.335  -7.429  0.00  0.00     0.096 A 
ATOM     14  H   LIG d   1       8.205  -1.789  -8.110  0.00  0.00     0.046 H 
ATOM     15  C   LIG d   1       6.623  -0.252  -8.111  0.00  0.00    -0.009 C 
ATOM     16  H   LIG d   1       7.167   0.200  -8.940  0.00  0.00     0.086 H 
ATOM     17  N   LIG d   1       6.350   0.746  -7.034  0.00  0.00     0.245 N 
ATOM     18  C   LIG d   1       6.594  -2.354  -6.758  0.00  0.00     0.231 A 
ATOM     19  O   LIG d   1       5.870  -3.137  -7.333  0.00  0.00    -0.275 OA
ATOM     20  N   LIG d   1       6.730  -2.259  -5.430  0.00  0.00    -0.241 N 
ATOM     21  C   LIG d   1       7.601  -1.309  -5.016  0.00  0.00     0.232 A 
ATOM     22  O   LIG d   1       7.887  -1.054  -3.866  0.00  0.00    -0.275 OA
ATOM     23 CL   LIG d   1      10.778   2.811 -10.141  0.00  0.00    -0.084 Cl
ATOM     24  H   LIG d   1      11.047   4.557  -7.907  0.00  0.00     0.064 H 
ATOM     25  H   LIG d   1       8.930   1.000  -8.940  0.00  0.00     0.064 H 
ATOM     26  H   LIG d   1       8.267   3.067  -4.063  0.00  0.00     0.155 HD
ATOM     27  H   LIG d   1       5.609   0.430  -6.426  0.00  0.00     0.203 HD
ATOM     28  H   LIG d   1       6.120   1.641  -7.438  0.00  0.00     0.203 HD
ENDROOT
BRANCH  15  29
ATOM     29  C   LIG d   1       5.307  -0.854  -8.607  0.00  0.00    -0.001 C 
ATOM     30  H   LIG d   1       5.518  -1.689  -9.275  0.00  0.00     0.033 H 
ATOM     31  H   LIG d   1       4.726  -1.209  -7.755  0.00  0.00     0.033 H 
BRANCH  29  32
ATOM     32  C   LIG d   1       4.509   0.212  -9.360  0.00  0.00     0.029 C 
ATOM     33  H   LIG d   1       5.111   1.116  -9.456  0.00  0.00     0.036 H 
ATOM     34  H   LIG d   1       4.252  -0.160 -10.352  0.00  0.00     0.036 H 
BRANCH  32  35
ATOM     35  C   LIG d   1       3.248   0.527  -8.599  0.00  0.00     0.211 C 
ATOM     36  O   LIG d   1       3.306   1.160  -7.566  0.00  0.00    -0.276 OA
ATOM     37  N   LIG d   1       2.056   0.106  -9.065  0.00  0.00    -0.329 N 
ATOM     38  H   LIG d   1       2.009  -0.400  -9.891  0.00  0.00     0.145 HD
ATOM     39  H   LIG d   1       1.243   0.309  -8.575  0.00  0.00     0.145 HD
ENDBRANCH  32  35
ENDBRANCH  29  32
ENDBRANCH  15  29
BRANCH   1  40
ATOM     40  C   LIG d   1      10.121   4.831  -5.392  0.00  0.00    -0.038 C 
ATOM     41  H   LIG d   1      11.191   4.815  -5.188  0.00  0.00     0.028 H 
ATOM     42  H   LIG d   1       9.843   5.802  -5.801  0.00  0.00     0.028 H 
ATOM     43  H   LIG d   1       9.572   4.656  -4.467  0.00  0.00     0.028 H 
ENDBRANCH   1  40
BRANCH  20  44
ATOM     44  C   LIG d   1       5.998  -3.117  -4.496  0.00  0.00     0.026 C 
ATOM     45  H   LIG d   1       6.157  -4.162  -4.761  0.00  0.00     0.047 H 
ATOM     46  H   LIG d   1       6.359  -2.941  -3.482  0.00  0.00     0.047 H 
BRANCH  44  47
ATOM     47  C   LIG d   1       4.504  -2.794  -4.568  0.00  0.00    -0.011 C 
ATOM     48  H   LIG d   1       4.220  -2.621  -5.606  0.00  0.00     0.033 H 
ATOM     49  H   LIG d   1       3.932  -3.631  -4.169  0.00  0.00     0.033 H 
BRANCH  47  50
ATOM     50  C   LIG d   1       4.218  -1.557  -3.757  0.00  0.00    -0.046 A 
ATOM     51  C   LIG d   1       4.635  -1.481  -2.440  0.00  0.00    -0.059 A 
ATOM     52  C   LIG d   1       4.377  -0.344  -1.698  0.00  0.00    -0.061 A 
ATOM     53  H   LIG d   1       5.165  -2.310  -1.994  0.00  0.00     0.062 H 
ATOM     54  C   LIG d   1       3.694   0.713  -2.267  0.00  0.00    -0.062 A 
ATOM     55  H   LIG d   1       4.706  -0.285  -0.671  0.00  0.00     0.062 H 
ATOM     56  C   LIG d   1       3.273   0.637  -3.582  0.00  0.00    -0.061 A 
ATOM     57  H   LIG d   1       3.489   1.600  -1.686  0.00  0.00     0.062 H 
ATOM     58  C   LIG d   1       3.534  -0.498  -4.327  0.00  0.00    -0.059 A 
ATOM     59  H   LIG d   1       2.739   1.463  -4.028  0.00  0.00     0.062 H 
ATOM     60  H   LIG d   1       3.206  -0.558  -5.354  0.00  0.00     0.062 H 
ENDBRANCH  47  50
ENDBRANCH  44  47
ENDBRANCH  20  44
TORSDOF 7
ENDMDL
MODEL 6
REMARK VINA RESULT:      -6.6      4.451      5.480
REMARK  7 active torsions:
REMARK  status: ('A' for Active; 'I' for Inactive)
REMARK    1  A    between atoms: C_1  and  C_2 
REMARK    2  A    between atoms: C_16  and  C_19 
REMARK    3  A    between atoms: C_19  and  C_20 
REMARK    4  A    between atoms: C_20  and  C_21 
REMARK       I    between atoms: C_21  and  N_23 
REMARK    5  A    between atoms: N_26  and  C_29 
REMARK    6  A    between atoms: C_29  and  C_30 
REMARK    7  A    between atoms: C_30  and  C_31 
ROOT
ATOM      1  C   LIG d   1      12.288   1.751  -4.175  0.00  0.00    -0.027 A 
ATOM      2  C   LIG d   1      11.999   2.871  -3.421  0.00  0.00    -0.039 A 
ATOM      3  C   LIG d   1      10.687   3.196  -3.129  0.00  0.00     0.042 A 
ATOM      4  C   LIG d   1       9.658   2.395  -3.597  0.00  0.00    -0.032 A 
ATOM      5  C   LIG d   1       9.943   1.279  -4.349  0.00  0.00     0.036 A 
ATOM      6  C   LIG d   1      11.259   0.944  -4.653  0.00  0.00     0.046 A 
ATOM      7  N   LIG d   1      11.295  -0.218  -5.428  0.00  0.00    -0.280 N 
ATOM      8  C   LIG d   1      10.062  -0.701  -5.678  0.00  0.00     0.274 A 
ATOM      9  O   LIG d   1       9.789  -1.691  -6.323  0.00  0.00    -0.269 OA
ATOM     10  C   LIG d   1       9.091   0.223  -4.996  0.00  0.00     0.106 A 
ATOM     11  C   LIG d   1       8.108   0.833  -6.004  0.00  0.00     0.111 A 
ATOM     12  H   LIG d   1       8.451   1.789  -6.397  0.00  0.00     0.047 H 
ATOM     13  C   LIG d   1       6.768   0.943  -5.225  0.00  0.00     0.096 A 
ATOM     14  H   LIG d   1       6.369   1.958  -5.213  0.00  0.00     0.046 H 
ATOM     15  C   LIG d   1       7.086   0.413  -3.812  0.00  0.00    -0.009 C 
ATOM     16  H   LIG d   1       7.324   1.239  -3.141  0.00  0.00     0.086 H 
ATOM     17  N   LIG d   1       8.262  -0.486  -4.003  0.00  0.00     0.245 N 
ATOM     18  C   LIG d   1       5.864  -0.029  -5.947  0.00  0.00     0.231 A 
ATOM     19  O   LIG d   1       4.710  -0.262  -5.655  0.00  0.00    -0.275 OA
ATOM     20  N   LIG d   1       6.533  -0.592  -6.959  0.00  0.00    -0.241 N 
ATOM     21  C   LIG d   1       7.813  -0.173  -7.095  0.00  0.00     0.232 A 
ATOM     22  O   LIG d   1       8.598  -0.538  -7.942  0.00  0.00    -0.275 OA
ATOM     23 CL   LIG d   1      10.331   4.605  -2.179  0.00  0.00    -0.084 Cl
ATOM     24  H   LIG d   1      12.802   3.495  -3.057  0.00  0.00     0.064 H 
ATOM     25  H   LIG d   1       8.633   2.647  -3.370  0.00  0.00     0.064 H 
ATOM     26  H   LIG d   1      12.112  -0.629  -5.749  0.00  0.00     0.155 HD
ATOM     27  H   LIG d   1       7.978  -1.386  -4.359  0.00  0.00     0.203 HD
ATOM     28  H   LIG d   1       8.766  -0.592  -3.135  0.00  0.00     0.203 HD
ENDROOT
BRANCH  15  29
ATOM     29  C   LIG d   1       5.903  -0.389  -3.265  0.00  0.00    -0.001 C 
ATOM     30  H   LIG d   1       5.233  -0.653  -4.084  0.00  0.00     0.033 H 
ATOM     31  H   LIG d   1       6.270  -1.299  -2.789  0.00  0.00     0.033 H 
BRANCH  29  32
ATOM     32  C   LIG d   1       5.145   0.454  -2.238  0.00  0.00     0.029 C 
ATOM     33  H   LIG d   1       5.018  -0.119  -1.320  0.00  0.00     0.036 H 
ATOM     34  H   LIG d   1       5.711   1.362  -2.024  0.00  0.00     0.036 H 
BRANCH  32  35
ATOM     35  C   LIG d   1       3.793   0.823  -2.790  0.00  0.00     0.211 C 
ATOM     36  O   LIG d   1       2.853   0.071  -2.644  0.00  0.00    -0.276 OA
ATOM     37  N   LIG d   1       3.628   1.988  -3.448  0.00  0.00    -0.329 N 
ATOM     38  H   LIG d   1       4.380   2.590  -3.565  0.00  0.00     0.145 HD
ATOM     39  H   LIG d   1       2.758   2.226  -3.804  0.00  0.00     0.145 HD
ENDBRANCH  32  35
ENDBRANCH  29  32
ENDBRANCH  15  29
BRANCH   1  40
ATOM     40  C   LIG d   1      13.721   1.405  -4.487  0.00  0.00    -0.038 C 
ATOM     41  H   LIG d   1      14.042   0.580  -3.852  0.00  0.00     0.028 H 
ATOM     42  H   LIG d   1      13.805   1.113  -5.533  0.00  0.00     0.028 H 
ATOM     43  H   LIG d   1      14.353   2.275  -4.301  0.00  0.00     0.028 H 
ENDBRANCH   1  40
BRANCH  20  44
ATOM     44  C   LIG d   1       5.929  -1.580  -7.856  0.00  0.00     0.026 C 
ATOM     45  H   LIG d   1       6.573  -2.458  -7.916  0.00  0.00     0.047 H 
ATOM     46  H   LIG d   1       4.953  -1.873  -7.471  0.00  0.00     0.047 H 
BRANCH  44  47
ATOM     47  C   LIG d   1       5.766  -0.971  -9.250  0.00  0.00    -0.011 C 
ATOM     48  H   LIG d   1       6.734  -0.624  -9.611  0.00  0.00     0.033 H 
ATOM     49  H   LIG d   1       5.373  -1.725  -9.933  0.00  0.00     0.033 H 
BRANCH  47  50
ATOM     50  C   LIG d   1       4.809   0.191  -9.181  0.00  0.00    -0.046 A 
ATOM     51  C   LIG d   1       3.465  -0.032  -8.944  0.00  0.00    -0.059 A 
ATOM     52  C   LIG d   1       2.589   1.035  -8.876  0.00  0.00    -0.061 A 
ATOM     53  H   LIG d   1       3.101  -1.040  -8.809  0.00  0.00     0.062 H 
ATOM     54  C   LIG d   1       3.054   2.324  -9.054  0.00  0.00    -0.062 A 
ATOM     55  H   LIG d   1       1.540   0.860  -8.687  0.00  0.00     0.062 H 
ATOM     56  C   LIG d   1       4.397   2.548  -9.296  0.00  0.00    -0.061 A 
ATOM     57  H   LIG d   1       2.369   3.158  -9.004  0.00  0.00     0.062 H 
ATOM     58  C   LIG d   1       5.274   1.481  -9.360  0.00  0.00    -0.059 A 
ATOM     59  H   LIG d   1       4.760   3.555  -9.435  0.00  0.00     0.062 H 
ATOM     60  H   LIG d   1       6.324   1.656  -9.548  0.00  0.00     0.062 H 
ENDBRANCH  47  50
ENDBRANCH  44  47
ENDBRANCH  20  44
TORSDOF 7
ENDMDL
MODEL 7
REMARK VINA RESULT:      -6.6      2.585      5.018
REMARK  7 active torsions:
REMARK  status: ('A' for Active; 'I' for Inactive)
REMARK    1  A    between atoms: C_1  and  C_2 
REMARK    2  A    between atoms: C_16  and  C_19 
REMARK    3  A    between atoms: C_19  and  C_20 
REMARK    4  A    between atoms: C_20  and  C_21 
REMARK       I    between atoms: C_21  and  N_23 
REMARK    5  A    between atoms: N_26  and  C_29 
REMARK    6  A    between atoms: C_29  and  C_30 
REMARK    7  A    between atoms: C_30  and  C_31 
ROOT
ATOM      1  C   LIG d   1      11.035  -1.501  -5.383  0.00  0.00    -0.027 A 
ATOM      2  C   LIG d   1      11.459  -2.623  -4.700  0.00  0.00    -0.039 A 
ATOM      3  C   LIG d   1      10.545  -3.426  -4.042  0.00  0.00     0.042 A 
ATOM      4  C   LIG d   1       9.198  -3.102  -4.069  0.00  0.00    -0.032 A 
ATOM      5  C   LIG d   1       8.773  -1.985  -4.748  0.00  0.00     0.036 A 
ATOM      6  C   LIG d   1       9.684  -1.166  -5.410  0.00  0.00     0.046 A 
ATOM      7  N   LIG d   1       9.020  -0.097  -6.017  0.00  0.00    -0.280 N 
ATOM      8  C   LIG d   1       7.691  -0.135  -5.802  0.00  0.00     0.274 A 
ATOM      9  O   LIG d   1       6.869   0.660  -6.205  0.00  0.00    -0.269 OA
ATOM     10  C   LIG d   1       7.424  -1.360  -4.972  0.00  0.00     0.106 A 
ATOM     11  C   LIG d   1       6.748  -0.992  -3.644  0.00  0.00     0.111 A 
ATOM     12  H   LIG d   1       7.465  -0.833  -2.839  0.00  0.00     0.047 H 
ATOM     13  C   LIG d   1       5.772  -2.167  -3.363  0.00  0.00     0.096 A 
ATOM     14  H   LIG d   1       5.944  -2.636  -2.394  0.00  0.00     0.046 H 
ATOM     15  C   LIG d   1       5.978  -3.144  -4.539  0.00  0.00    -0.009 C 
ATOM     16  H   LIG d   1       6.692  -3.922  -4.266  0.00  0.00     0.086 H 
ATOM     17  N   LIG d   1       6.503  -2.293  -5.648  0.00  0.00     0.245 N 
ATOM     18  C   LIG d   1       4.409  -1.522  -3.465  0.00  0.00     0.231 A 
ATOM     19  O   LIG d   1       3.351  -2.094  -3.319  0.00  0.00    -0.275 OA
ATOM     20  N   LIG d   1       4.553  -0.220  -3.739  0.00  0.00    -0.241 N 
ATOM     21  C   LIG d   1       5.836   0.196  -3.854  0.00  0.00     0.232 A 
ATOM     22  O   LIG d   1       6.201   1.328  -4.088  0.00  0.00    -0.275 OA
ATOM     23 CL   LIG d   1      11.084  -4.837  -3.187  0.00  0.00    -0.084 Cl
ATOM     24  H   LIG d   1      12.509  -2.875  -4.680  0.00  0.00     0.064 H 
ATOM     25  H   LIG d   1       8.483  -3.728  -3.556  0.00  0.00     0.064 H 
ATOM     26  H   LIG d   1       9.465   0.594  -6.532  0.00  0.00     0.155 HD
ATOM     27  H   LIG d   1       5.757  -1.786  -6.100  0.00  0.00     0.203 HD
ATOM     28  H   LIG d   1       7.003  -2.860  -6.316  0.00  0.00     0.203 HD
ENDROOT
BRANCH  15  29
ATOM     29  C   LIG d   1       4.645  -3.771  -4.952  0.00  0.00    -0.001 C 
ATOM     30  H   LIG d   1       3.958  -3.754  -4.105  0.00  0.00     0.033 H 
ATOM     31  H   LIG d   1       4.216  -3.202  -5.778  0.00  0.00     0.033 H 
BRANCH  29  32
ATOM     32  C   LIG d   1       4.874  -5.217  -5.394  0.00  0.00     0.029 C 
ATOM     33  H   LIG d   1       5.924  -5.477  -5.255  0.00  0.00     0.036 H 
ATOM     34  H   LIG d   1       4.253  -5.883  -4.795  0.00  0.00     0.036 H 
BRANCH  32  35
ATOM     35  C   LIG d   1       4.510  -5.362  -6.848  0.00  0.00     0.211 C 
ATOM     36  O   LIG d   1       3.346  -5.432  -7.178  0.00  0.00    -0.276 OA
ATOM     37  N   LIG d   1       5.479  -5.414  -7.784  0.00  0.00    -0.329 N 
ATOM     38  H   LIG d   1       6.412  -5.358  -7.521  0.00  0.00     0.145 HD
ATOM     39  H   LIG d   1       5.246  -5.508  -8.720  0.00  0.00     0.145 HD
ENDBRANCH  32  35
ENDBRANCH  29  32
ENDBRANCH  15  29
BRANCH   1  40
ATOM     40  C   LIG d   1      12.039  -0.633  -6.097  0.00  0.00    -0.038 C 
ATOM     41  H   LIG d   1      12.868  -0.410  -5.427  0.00  0.00     0.028 H 
ATOM     42  H   LIG d   1      12.412  -1.157  -6.976  0.00  0.00     0.028 H 
ATOM     43  H   LIG d   1      11.560   0.297  -6.404  0.00  0.00     0.028 H 
ENDBRANCH   1  40
BRANCH  20  44
ATOM     44  C   LIG d   1       3.414   0.687  -3.897  0.00  0.00     0.026 C 
ATOM     45  H   LIG d   1       2.920   0.821  -2.934  0.00  0.00     0.047 H 
ATOM     46  H   LIG d   1       3.765   1.652  -4.261  0.00  0.00     0.047 H 
BRANCH  44  47
ATOM     47  C   LIG d   1       2.424   0.093  -4.900  0.00  0.00    -0.011 C 
ATOM     48  H   LIG d   1       2.348  -0.983  -4.743  0.00  0.00     0.033 H 
ATOM     49  H   LIG d   1       1.445   0.550  -4.760  0.00  0.00     0.033 H 
BRANCH  47  50
ATOM     50  C   LIG d   1       2.908   0.362  -6.302  0.00  0.00    -0.046 A 
ATOM     51  C   LIG d   1       2.603   1.560  -6.921  0.00  0.00    -0.059 A 
ATOM     52  C   LIG d   1       3.051   1.809  -8.205  0.00  0.00    -0.061 A 
ATOM     53  H   LIG d   1       2.017   2.303  -6.399  0.00  0.00     0.062 H 
ATOM     54  C   LIG d   1       3.794   0.856  -8.874  0.00  0.00    -0.062 A 
ATOM     55  H   LIG d   1       2.816   2.746  -8.686  0.00  0.00     0.062 H 
ATOM     56  C   LIG d   1       4.096  -0.345  -8.258  0.00  0.00    -0.061 A 
ATOM     57  H   LIG d   1       4.142   1.048  -9.878  0.00  0.00     0.062 H 
ATOM     58  C   LIG d   1       3.652  -0.592  -6.972  0.00  0.00    -0.059 A 
ATOM     59  H   LIG d   1       4.678  -1.089  -8.780  0.00  0.00     0.062 H 
ATOM     60  H   LIG d   1       3.887  -1.530  -6.490  0.00  0.00     0.062 H 
ENDBRANCH  47  50
ENDBRANCH  44  47
ENDBRANCH  20  44
TORSDOF 7
ENDMDL
MODEL 8
REMARK VINA RESULT:      -6.6      4.127      7.894
REMARK  7 active torsions:
REMARK  status: ('A' for Active; 'I' for Inactive)
REMARK    1  A    between atoms: C_1  and  C_2 
REMARK    2  A    between atoms: C_16  and  C_19 
REMARK    3  A    between atoms: C_19  and  C_20 
REMARK    4  A    between atoms: C_20  and  C_21 
REMARK       I    between atoms: C_21  and  N_23 
REMARK    5  A    between atoms: N_26  and  C_29 
REMARK    6  A    between atoms: C_29  and  C_30 
REMARK    7  A    between atoms: C_30  and  C_31 
ROOT
ATOM      1  C   LIG d   1       2.473  -2.360 -14.357  0.00  0.00    -0.027 A 
ATOM      2  C   LIG d   1       3.145  -1.618 -15.307  0.00  0.00    -0.039 A 
ATOM      3  C   LIG d   1       4.065  -0.660 -14.923  0.00  0.00     0.042 A 
ATOM      4  C   LIG d   1       4.311  -0.442 -13.577  0.00  0.00    -0.032 A 
ATOM      5  C   LIG d   1       3.642  -1.179 -12.627  0.00  0.00     0.036 A 
ATOM      6  C   LIG d   1       2.711  -2.143 -13.003  0.00  0.00     0.046 A 
ATOM      7  N   LIG d   1       2.162  -2.751 -11.871  0.00  0.00    -0.280 N 
ATOM      8  C   LIG d   1       2.668  -2.248 -10.727  0.00  0.00     0.274 A 
ATOM      9  O   LIG d   1       2.377  -2.581  -9.598  0.00  0.00    -0.269 OA
ATOM     10  C   LIG d   1       3.669  -1.198 -11.124  0.00  0.00     0.106 A 
ATOM     11  C   LIG d   1       3.295   0.170 -10.538  0.00  0.00     0.111 A 
ATOM     12  H   LIG d   1       2.685   0.765 -11.217  0.00  0.00     0.047 H 
ATOM     13  C   LIG d   1       4.659   0.839 -10.207  0.00  0.00     0.096 A 
ATOM     14  H   LIG d   1       4.782   1.808 -10.690  0.00  0.00     0.046 H 
ATOM     15  C   LIG d   1       5.722  -0.186 -10.655  0.00  0.00    -0.009 C 
ATOM     16  H   LIG d   1       6.070   0.043 -11.662  0.00  0.00     0.086 H 
ATOM     17  N   LIG d   1       5.018  -1.502 -10.611  0.00  0.00     0.245 N 
ATOM     18  C   LIG d   1       4.643   0.936  -8.699  0.00  0.00     0.231 A 
ATOM     19  O   LIG d   1       5.533   1.397  -8.018  0.00  0.00    -0.275 OA
ATOM     20  N   LIG d   1       3.492   0.437  -8.233  0.00  0.00    -0.241 N 
ATOM     21  C   LIG d   1       2.646  -0.019  -9.185  0.00  0.00     0.232 A 
ATOM     22  O   LIG d   1       1.550  -0.502  -8.996  0.00  0.00    -0.275 OA
ATOM     23 CL   LIG d   1       4.909   0.269 -16.123  0.00  0.00    -0.084 Cl
ATOM     24  H   LIG d   1       2.953  -1.788 -16.356  0.00  0.00     0.064 H 
ATOM     25  H   LIG d   1       5.029   0.306 -13.273  0.00  0.00     0.064 H 
ATOM     26  H   LIG d   1       1.494  -3.453 -11.904  0.00  0.00     0.155 HD
ATOM     27  H   LIG d   1       4.965  -1.855  -9.668  0.00  0.00     0.203 HD
ATOM     28  H   LIG d   1       5.482  -2.166 -11.212  0.00  0.00     0.203 HD
ENDROOT
BRANCH  15  29
ATOM     29  C   LIG d   1       6.899  -0.194  -9.677  0.00  0.00    -0.001 C 
ATOM     30  H   LIG d   1       6.643   0.395  -8.796  0.00  0.00     0.033 H 
ATOM     31  H   LIG d   1       7.115  -1.221  -9.378  0.00  0.00     0.033 H 
BRANCH  29  32
ATOM     32  C   LIG d   1       8.130   0.409 -10.354  0.00  0.00     0.029 C 
ATOM     33  H   LIG d   1       8.935  -0.326 -10.368  0.00  0.00     0.036 H 
ATOM     34  H   LIG d   1       7.880   0.693 -11.377  0.00  0.00     0.036 H 
BRANCH  32  35
ATOM     35  C   LIG d   1       8.577   1.628  -9.590  0.00  0.00     0.211 C 
ATOM     36  O   LIG d   1       8.956   2.613 -10.187  0.00  0.00    -0.276 OA
ATOM     37  N   LIG d   1       8.557   1.624  -8.242  0.00  0.00    -0.329 N 
ATOM     38  H   LIG d   1       8.253   0.836  -7.764  0.00  0.00     0.145 HD
ATOM     39  H   LIG d   1       8.844   2.408  -7.749  0.00  0.00     0.145 HD
ENDBRANCH  32  35
ENDBRANCH  29  32
ENDBRANCH  15  29
BRANCH   1  40
ATOM     40  C   LIG d   1       1.474  -3.402 -14.787  0.00  0.00    -0.038 C 
ATOM     41  H   LIG d   1       1.491  -4.235 -14.085  0.00  0.00     0.028 H 
ATOM     42  H   LIG d   1       0.476  -2.963 -14.806  0.00  0.00     0.028 H 
ATOM     43  H   LIG d   1       1.731  -3.762 -15.784  0.00  0.00     0.028 H 
ENDBRANCH   1  40
BRANCH  20  44
ATOM     44  C   LIG d   1       3.169   0.391  -6.805  0.00  0.00     0.026 C 
ATOM     45  H   LIG d   1       3.538   1.295  -6.320  0.00  0.00     0.047 H 
ATOM     46  H   LIG d   1       2.088   0.328  -6.679  0.00  0.00     0.047 H 
BRANCH  44  47
ATOM     47  C   LIG d   1       3.829  -0.835  -6.172  0.00  0.00    -0.011 C 
ATOM     48  H   LIG d   1       3.241  -1.723  -6.401  0.00  0.00     0.033 H 
ATOM     49  H   LIG d   1       4.836  -0.953  -6.573  0.00  0.00     0.033 H 
BRANCH  47  50
ATOM     50  C   LIG d   1       3.901  -0.651  -4.678  0.00  0.00    -0.046 A 
ATOM     51  C   LIG d   1       3.482   0.536  -4.106  0.00  0.00    -0.059 A 
ATOM     52  C   LIG d   1       3.543   0.702  -2.735  0.00  0.00    -0.061 A 
ATOM     53  H   LIG d   1       3.102   1.331  -4.731  0.00  0.00     0.062 H 
ATOM     54  C   LIG d   1       4.034  -0.313  -1.937  0.00  0.00    -0.062 A 
ATOM     55  H   LIG d   1       3.211   1.628  -2.289  0.00  0.00     0.062 H 
ATOM     56  C   LIG d   1       4.458  -1.499  -2.508  0.00  0.00    -0.061 A 
ATOM     57  H   LIG d   1       4.085  -0.183  -0.866  0.00  0.00     0.062 H 
ATOM     58  C   LIG d   1       4.393  -1.667  -3.879  0.00  0.00    -0.059 A 
ATOM     59  H   LIG d   1       4.841  -2.293  -1.885  0.00  0.00     0.062 H 
ATOM     60  H   LIG d   1       4.723  -2.594  -4.326  0.00  0.00     0.062 H 
ENDBRANCH  47  50
ENDBRANCH  44  47
ENDBRANCH  20  44
TORSDOF 7
ENDMDL
MODEL 9
REMARK VINA RESULT:      -6.3      3.315      6.940
REMARK  7 active torsions:
REMARK  status: ('A' for Active; 'I' for Inactive)
REMARK    1  A    between atoms: C_1  and  C_2 
REMARK    2  A    between atoms: C_16  and  C_19 
REMARK    3  A    between atoms: C_19  and  C_20 
REMARK    4  A    between atoms: C_20  and  C_21 
REMARK       I    between atoms: C_21  and  N_23 
REMARK    5  A    between atoms: N_26  and  C_29 
REMARK    6  A    between atoms: C_29  and  C_30 
REMARK    7  A    between atoms: C_30  and  C_31 
ROOT
ATOM      1  C   LIG d   1       9.017   2.022  -4.694  0.00  0.00    -0.027 A 
ATOM      2  C   LIG d   1       9.300   2.692  -5.867  0.00  0.00    -0.039 A 
ATOM      3  C   LIG d   1       8.634   2.367  -7.035  0.00  0.00     0.042 A 
ATOM      4  C   LIG d   1       7.679   1.364  -7.027  0.00  0.00    -0.032 A 
ATOM      5  C   LIG d   1       7.395   0.694  -5.859  0.00  0.00     0.036 A 
ATOM      6  C   LIG d   1       8.062   1.009  -4.679  0.00  0.00     0.046 A 
ATOM      7  N   LIG d   1       7.611   0.196  -3.637  0.00  0.00    -0.280 N 
ATOM      8  C   LIG d   1       6.664  -0.673  -4.043  0.00  0.00     0.274 A 
ATOM      9  O   LIG d   1       6.094  -1.496  -3.358  0.00  0.00    -0.269 OA
ATOM     10  C   LIG d   1       6.443  -0.416  -5.508  0.00  0.00     0.106 A 
ATOM     11  C   LIG d   1       6.720  -1.677  -6.337  0.00  0.00     0.111 A 
ATOM     12  H   LIG d   1       7.748  -1.727  -6.694  0.00  0.00     0.047 H 
ATOM     13  C   LIG d   1       5.681  -1.621  -7.492  0.00  0.00     0.096 A 
ATOM     14  H   LIG d   1       6.144  -1.662  -8.478  0.00  0.00     0.046 H 
ATOM     15  C   LIG d   1       4.898  -0.312  -7.258  0.00  0.00    -0.009 C 
ATOM     16  H   LIG d   1       5.322   0.496  -7.855  0.00  0.00     0.086 H 
ATOM     17  N   LIG d   1       5.046  -0.041  -5.797  0.00  0.00     0.245 N 
ATOM     18  C   LIG d   1       4.789  -2.809  -7.217  0.00  0.00     0.231 A 
ATOM     19  O   LIG d   1       3.830  -3.134  -7.884  0.00  0.00    -0.275 OA
ATOM     20  N   LIG d   1       5.222  -3.447  -6.124  0.00  0.00    -0.241 N 
ATOM     21  C   LIG d   1       6.317  -2.901  -5.546  0.00  0.00     0.232 A 
ATOM     22  O   LIG d   1       6.885  -3.315  -4.558  0.00  0.00    -0.275 OA
ATOM     23 CL   LIG d   1       8.994   3.214  -8.507  0.00  0.00    -0.084 Cl
ATOM     24  H   LIG d   1      10.045   3.474  -5.873  0.00  0.00     0.064 H 
ATOM     25  H   LIG d   1       7.157   1.108  -7.937  0.00  0.00     0.064 H 
ATOM     26  H   LIG d   1       7.941   0.249  -2.727  0.00  0.00     0.155 HD
ATOM     27  H   LIG d   1       4.410  -0.608  -5.257  0.00  0.00     0.203 HD
ATOM     28  H   LIG d   1       4.898   0.939  -5.607  0.00  0.00     0.203 HD
ENDROOT
BRANCH  15  29
ATOM     29  C   LIG d   1       3.421  -0.506  -7.603  0.00  0.00    -0.001 C 
ATOM     30  H   LIG d   1       3.224  -1.564  -7.775  0.00  0.00     0.033 H 
ATOM     31  H   LIG d   1       2.805  -0.152  -6.776  0.00  0.00     0.033 H 
BRANCH  29  32
ATOM     32  C   LIG d   1       3.082   0.288  -8.866  0.00  0.00     0.029 C 
ATOM     33  H   LIG d   1       3.736  -0.028  -9.680  0.00  0.00     0.036 H 
ATOM     34  H   LIG d   1       2.044   0.105  -9.144  0.00  0.00     0.036 H 
BRANCH  32  35
ATOM     35  C   LIG d   1       3.282   1.758  -8.605  0.00  0.00     0.211 C 
ATOM     36  O   LIG d   1       2.732   2.286  -7.661  0.00  0.00    -0.276 OA
ATOM     37  N   LIG d   1       4.070   2.487  -9.419  0.00  0.00    -0.329 N 
ATOM     38  H   LIG d   1       4.510   2.065 -10.174  0.00  0.00     0.145 HD
ATOM     39  H   LIG d   1       4.198   3.433  -9.252  0.00  0.00     0.145 HD
ENDBRANCH  32  35
ENDBRANCH  29  32
ENDBRANCH  15  29
BRANCH   1  40
ATOM     40  C   LIG d   1       9.748   2.385  -3.427  0.00  0.00    -0.038 C 
ATOM     41  H   LIG d   1      10.474   3.169  -3.638  0.00  0.00     0.028 H 
ATOM     42  H   LIG d   1       9.034   2.739  -2.684  0.00  0.00     0.028 H 
ATOM     43  H   LIG d   1      10.266   1.505  -3.043  0.00  0.00     0.028 H 
ENDBRANCH   1  40
BRANCH  20  44
ATOM     44  C   LIG d   1       4.569  -4.647  -5.596  0.00  0.00     0.026 C 
ATOM     45  H   LIG d   1       4.943  -4.853  -4.593  0.00  0.00     0.047 H 
ATOM     46  H   LIG d   1       3.492  -4.487  -5.556  0.00  0.00     0.047 H 
BRANCH  44  47
ATOM     47  C   LIG d   1       4.874  -5.837  -6.509  0.00  0.00    -0.011 C 
ATOM     48  H   LIG d   1       3.940  -6.265  -6.872  0.00  0.00     0.033 H 
ATOM     49  H   LIG d   1       5.473  -5.501  -7.356  0.00  0.00     0.033 H 
BRANCH  47  50
ATOM     50  C   LIG d   1       5.638  -6.881  -5.735  0.00  0.00    -0.046 A 
ATOM     51  C   LIG d   1       6.986  -6.704  -5.480  0.00  0.00    -0.059 A 
ATOM     52  C   LIG d   1       7.685  -7.659  -4.766  0.00  0.00    -0.061 A 
ATOM     53  H   LIG d   1       7.490  -5.818  -5.836  0.00  0.00     0.062 H 
ATOM     54  C   LIG d   1       7.040  -8.795  -4.316  0.00  0.00    -0.062 A 
ATOM     55  H   LIG d   1       8.736  -7.519  -4.564  0.00  0.00     0.062 H 
ATOM     56  C   LIG d   1       5.694  -8.975  -4.575  0.00  0.00    -0.061 A 
ATOM     57  H   LIG d   1       7.587  -9.543  -3.761  0.00  0.00     0.062 H 
ATOM     58  C   LIG d   1       4.993  -8.018  -5.285  0.00  0.00    -0.059 A 
ATOM     59  H   LIG d   1       5.190  -9.862  -4.223  0.00  0.00     0.062 H 
ATOM     60  H   LIG d   1       3.941  -8.157  -5.487  0.00  0.00     0.062 H 
ENDBRANCH  47  50
ENDBRANCH  44  47
ENDBRANCH  20  44
TORSDOF 7
ENDMDL
