MODEL 1
REMARK VINA RESULT:      -6.5      0.000      0.000
REMARK  7 active torsions:
REMARK  status: ('A' for Active; 'I' for Inactive)
REMARK    1  A    between atoms: C_1  and  C_2 
REMARK    2  A    between atoms: C_2  and  C_3 
REMARK    3  A    between atoms: C_2  and  C_4 
REMARK    4  A    between atoms: C_2  and  N_44 
REMARK    5  A    between atoms: C_5  and  C_6 
REMARK    6  A    between atoms: C_5  and  N_44 
REMARK       I    between atoms: C_6  and  N_8 
REMARK    7  A    between atoms: N_8  and  C_9 
ROOT
ATOM      1  C   LIG d   1       4.778  -1.455  -4.557  0.00  0.00     0.048 A 
ATOM      2  C   LIG d   1       4.234  -1.219  -5.840  0.00  0.00     0.022 A 
ATOM      3  C   LIG d   1       4.517  -2.064  -6.922  0.00  0.00    -0.051 A 
ATOM      4  C   LIG d   1       3.974  -1.799  -8.144  0.00  0.00    -0.061 A 
ATOM      5  C   LIG d   1       3.140  -0.699  -8.330  0.00  0.00    -0.060 A 
ATOM      6  C   LIG d   1       2.843   0.139  -7.300  0.00  0.00    -0.036 A 
ATOM      7  C   LIG d   1       3.385  -0.102  -6.025  0.00  0.00     0.073 A 
ATOM      8  N   LIG d   1       3.111   0.705  -4.996  0.00  0.00    -0.251 NA
ATOM      9  C   LIG d   1       3.609   0.501  -3.793  0.00  0.00     0.047 A 
ATOM     10  C   LIG d   1       4.451  -0.575  -3.537  0.00  0.00    -0.004 A 
ATOM     11  C   LIG d   1       4.876  -0.560  -2.085  0.00  0.00    -0.024 C 
ATOM     12  C   LIG d   1       4.560   0.863  -1.585  0.00  0.00    -0.043 C 
ATOM     13  C   LIG d   1       3.413   1.300  -2.520  0.00  0.00    -0.010 C 
ATOM     14  H   LIG d   1       5.163  -2.919  -6.789  0.00  0.00     0.062 H 
ATOM     15  H   LIG d   1       4.193  -2.450  -8.977  0.00  0.00     0.062 H 
ATOM     16  H   LIG d   1       2.722  -0.510  -9.307  0.00  0.00     0.062 H 
ATOM     17  H   LIG d   1       2.194   0.987  -7.462  0.00  0.00     0.064 H 
ATOM     18  H   LIG d   1       4.302  -1.291  -1.515  0.00  0.00     0.031 H 
ATOM     19  H   LIG d   1       5.943  -0.767  -2.001  0.00  0.00     0.031 H 
ATOM     20  H   LIG d   1       5.426   1.514  -1.706  0.00  0.00     0.027 H 
ATOM     21  H   LIG d   1       4.228   0.847  -0.548  0.00  0.00     0.027 H 
ATOM     22  H   LIG d   1       3.483   2.368  -2.729  0.00  0.00     0.033 H 
ATOM     23  H   LIG d   1       2.447   1.065  -2.071  0.00  0.00     0.033 H 
ENDROOT
BRANCH   1  24
ATOM     24  N   LIG d   1       5.618  -2.539  -4.324  0.00  0.00    -0.280 N 
ATOM     25  C   LIG d   1       6.954  -2.386  -4.403  0.00  0.00     0.262 C 
ATOM     26  O   LIG d   1       7.428  -1.286  -4.588  0.00  0.00    -0.270 OA
ATOM     27  H   LIG d   1       5.240  -3.406  -4.103  0.00  0.00     0.155 HD
BRANCH  25  28
ATOM     28  C   LIG d   1       7.859  -3.582  -4.261  0.00  0.00     0.045 C 
ATOM     29  H   LIG d   1       7.261  -4.468  -4.047  0.00  0.00     0.091 H 
ATOM     30  H   LIG d   1       8.412  -3.732  -5.189  0.00  0.00     0.091 H 
BRANCH  28  31
ATOM     31  N   LIG d   1       8.805  -3.344  -3.155  0.00  0.00     0.237 N 
ATOM     32  H   LIG d   1       9.353  -2.498  -3.353  0.00  0.00     0.202 HD
ATOM     33  H   LIG d   1       8.279  -3.215  -2.282  0.00  0.00     0.202 HD
BRANCH  31  34
ATOM     34  C   LIG d   1       9.720  -4.492  -3.006  0.00  0.00    -0.020 C 
BRANCH  34  35
ATOM     35  C   LIG d   1       9.599  -5.065  -1.593  0.00  0.00    -0.019 C 
ATOM     36  H   LIG d   1      10.439  -5.732  -1.396  0.00  0.00     0.029 H 
ATOM     37  H   LIG d   1       9.606  -4.251  -0.869  0.00  0.00     0.029 H 
ATOM     38  H   LIG d   1       8.665  -5.622  -1.504  0.00  0.00     0.029 H 
ENDBRANCH  34  35
BRANCH  34  39
ATOM     39  C   LIG d   1       9.344  -5.568  -4.027  0.00  0.00    -0.019 C 
ATOM     40  H   LIG d   1       8.329  -5.392  -4.383  0.00  0.00     0.029 H 
ATOM     41  H   LIG d   1      10.037  -5.530  -4.867  0.00  0.00     0.029 H 
ATOM     42  H   LIG d   1       9.398  -6.551  -3.556  0.00  0.00     0.029 H 
ENDBRANCH  34  39
BRANCH  34  43
ATOM     43  C   LIG d   1      11.160  -4.037  -3.251  0.00  0.00    -0.019 C 
ATOM     44  H   LIG d   1      11.236  -2.965  -3.076  0.00  0.00     0.029 H 
ATOM     45  H   LIG d   1      11.827  -4.566  -2.570  0.00  0.00     0.029 H 
ATOM     46  H   LIG d   1      11.440  -4.259  -4.280  0.00  0.00     0.029 H 
ENDBRANCH  34  43
ENDBRANCH  31  34
ENDBRANCH  28  31
ENDBRANCH  25  28
ENDBRANCH   1  24
TORSDOF 7
ENDMDL
MODEL 2
REMARK VINA RESULT:      -6.3      2.464      6.899
REMARK  7 active torsions:
REMARK  status: ('A' for Active; 'I' for Inactive)
REMARK    1  A    between atoms: C_1  and  C_2 
REMARK    2  A    between atoms: C_2  and  C_3 
REMARK    3  A    between atoms: C_2  and  C_4 
REMARK    4  A    between atoms: C_2  and  N_44 
REMARK    5  A    between atoms: C_5  and  C_6 
REMARK    6  A    between atoms: C_5  and  N_44 
REMARK       I    between atoms: C_6  and  N_8 
REMARK    7  A    between atoms: N_8  and  C_9 
ROOT
ATOM      1  C   LIG d   1       3.987  -0.994  -5.428  0.00  0.00     0.048 A 
ATOM      2  C   LIG d   1       4.051  -0.301  -4.199  0.00  0.00     0.022 A 
ATOM      3  C   LIG d   1       3.319   0.875  -3.982  0.00  0.00    -0.051 A 
ATOM      4  C   LIG d   1       3.412   1.515  -2.783  0.00  0.00    -0.061 A 
ATOM      5  C   LIG d   1       4.225   1.014  -1.768  0.00  0.00    -0.060 A 
ATOM      6  C   LIG d   1       4.946  -0.126  -1.945  0.00  0.00    -0.036 A 
ATOM      7  C   LIG d   1       4.876  -0.813  -3.170  0.00  0.00     0.073 A 
ATOM      8  N   LIG d   1       5.574  -1.935  -3.371  0.00  0.00    -0.251 NA
ATOM      9  C   LIG d   1       5.526  -2.595  -4.511  0.00  0.00     0.047 A 
ATOM     10  C   LIG d   1       4.739  -2.150  -5.567  0.00  0.00    -0.004 A 
ATOM     11  C   LIG d   1       4.881  -3.090  -6.744  0.00  0.00    -0.024 C 
ATOM     12  C   LIG d   1       6.155  -3.908  -6.458  0.00  0.00    -0.043 C 
ATOM     13  C   LIG d   1       6.240  -3.869  -4.917  0.00  0.00    -0.010 C 
ATOM     14  H   LIG d   1       2.686   1.272  -4.762  0.00  0.00     0.062 H 
ATOM     15  H   LIG d   1       2.849   2.421  -2.617  0.00  0.00     0.062 H 
ATOM     16  H   LIG d   1       4.282   1.539  -0.826  0.00  0.00     0.062 H 
ATOM     17  H   LIG d   1       5.571  -0.500  -1.147  0.00  0.00     0.064 H 
ATOM     18  H   LIG d   1       4.018  -3.753  -6.806  0.00  0.00     0.031 H 
ATOM     19  H   LIG d   1       4.990  -2.523  -7.669  0.00  0.00     0.031 H 
ATOM     20  H   LIG d   1       7.027  -3.431  -6.905  0.00  0.00     0.027 H 
ATOM     21  H   LIG d   1       6.049  -4.933  -6.813  0.00  0.00     0.027 H 
ATOM     22  H   LIG d   1       7.282  -3.837  -4.598  0.00  0.00     0.033 H 
ATOM     23  H   LIG d   1       5.739  -4.737  -4.488  0.00  0.00     0.033 H 
ENDROOT
BRANCH   1  24
ATOM     24  N   LIG d   1       3.191  -0.531  -6.471  0.00  0.00    -0.280 N 
ATOM     25  C   LIG d   1       3.715   0.281  -7.410  0.00  0.00     0.262 C 
ATOM     26  O   LIG d   1       4.900   0.535  -7.397  0.00  0.00    -0.270 OA
ATOM     27  H   LIG d   1       2.258  -0.794  -6.522  0.00  0.00     0.155 HD
BRANCH  25  28
ATOM     28  C   LIG d   1       2.828   0.872  -8.475  0.00  0.00     0.045 C 
ATOM     29  H   LIG d   1       2.111   1.553  -8.016  0.00  0.00     0.091 H 
ATOM     30  H   LIG d   1       3.439   1.418  -9.194  0.00  0.00     0.091 H 
BRANCH  28  31
ATOM     31  N   LIG d   1       2.107  -0.216  -9.162  0.00  0.00     0.237 N 
ATOM     32  H   LIG d   1       2.099  -1.050  -8.561  0.00  0.00     0.202 HD
ATOM     33  H   LIG d   1       1.141   0.082  -9.347  0.00  0.00     0.202 HD
BRANCH  31  34
ATOM     34  C   LIG d   1       2.769  -0.543 -10.439  0.00  0.00    -0.020 C 
BRANCH  34  35
ATOM     35  C   LIG d   1       1.713  -0.899 -11.488  0.00  0.00    -0.019 C 
ATOM     36  H   LIG d   1       1.414  -1.941 -11.364  0.00  0.00     0.029 H 
ATOM     37  H   LIG d   1       0.843  -0.255 -11.361  0.00  0.00     0.029 H 
ATOM     38  H   LIG d   1       2.128  -0.756 -12.486  0.00  0.00     0.029 H 
ENDBRANCH  34  35
BRANCH  34  39
ATOM     39  C   LIG d   1       3.569   0.671 -10.914  0.00  0.00    -0.019 C 
ATOM     40  H   LIG d   1       4.520   0.339 -11.331  0.00  0.00     0.029 H 
ATOM     41  H   LIG d   1       3.003   1.204 -11.678  0.00  0.00     0.029 H 
ATOM     42  H   LIG d   1       3.756   1.336 -10.070  0.00  0.00     0.029 H 
ENDBRANCH  34  39
BRANCH  34  43
ATOM     43  C   LIG d   1       3.712  -1.731 -10.241  0.00  0.00    -0.019 C 
ATOM     44  H   LIG d   1       4.617  -1.578 -10.827  0.00  0.00     0.029 H 
ATOM     45  H   LIG d   1       3.972  -1.815  -9.185  0.00  0.00     0.029 H 
ATOM     46  H   LIG d   1       3.217  -2.645 -10.567  0.00  0.00     0.029 H 
ENDBRANCH  34  43
ENDBRANCH  31  34
ENDBRANCH  28  31
ENDBRANCH  25  28
ENDBRANCH   1  24
TORSDOF 7
ENDMDL
MODEL 3
REMARK VINA RESULT:      -6.3      3.681      4.985
REMARK  7 active torsions:
REMARK  status: ('A' for Active; 'I' for Inactive)
REMARK    1  A    between atoms: C_1  and  C_2 
REMARK    2  A    between atoms: C_2  and  C_3 
REMARK    3  A    between atoms: C_2  and  C_4 
REMARK    4  A    between atoms: C_2  and  N_44 
REMARK    5  A    between atoms: C_5  and  C_6 
REMARK    6  A    between atoms: C_5  and  N_44 
REMARK       I    between atoms: C_6  and  N_8 
REMARK    7  A    between atoms: N_8  and  C_9 
ROOT
ATOM      1  C   LIG d   1       6.397  -1.001  -3.599  0.00  0.00     0.048 A 
ATOM      2  C   LIG d   1       6.384  -2.254  -4.253  0.00  0.00     0.022 A 
ATOM      3  C   LIG d   1       7.552  -2.814  -4.787  0.00  0.00    -0.051 A 
ATOM      4  C   LIG d   1       7.496  -4.023  -5.412  0.00  0.00    -0.061 A 
ATOM      5  C   LIG d   1       6.290  -4.711  -5.526  0.00  0.00    -0.060 A 
ATOM      6  C   LIG d   1       5.137  -4.197  -5.016  0.00  0.00    -0.036 A 
ATOM      7  C   LIG d   1       5.157  -2.951  -4.365  0.00  0.00     0.073 A 
ATOM      8  N   LIG d   1       4.041  -2.423  -3.855  0.00  0.00    -0.251 NA
ATOM      9  C   LIG d   1       4.034  -1.255  -3.243  0.00  0.00     0.047 A 
ATOM     10  C   LIG d   1       5.200  -0.513  -3.097  0.00  0.00    -0.004 A 
ATOM     11  C   LIG d   1       4.900   0.778  -2.367  0.00  0.00    -0.024 C 
ATOM     12  C   LIG d   1       3.371   0.949  -2.462  0.00  0.00    -0.043 C 
ATOM     13  C   LIG d   1       2.879  -0.505  -2.610  0.00  0.00    -0.010 C 
ATOM     14  H   LIG d   1       8.493  -2.289  -4.704  0.00  0.00     0.062 H 
ATOM     15  H   LIG d   1       8.396  -4.454  -5.824  0.00  0.00     0.062 H 
ATOM     16  H   LIG d   1       6.270  -5.668  -6.026  0.00  0.00     0.062 H 
ATOM     17  H   LIG d   1       4.211  -4.744  -5.113  0.00  0.00     0.064 H 
ATOM     18  H   LIG d   1       5.203   0.702  -1.323  0.00  0.00     0.031 H 
ATOM     19  H   LIG d   1       5.410   1.612  -2.849  0.00  0.00     0.031 H 
ATOM     20  H   LIG d   1       3.104   1.539  -3.339  0.00  0.00     0.027 H 
ATOM     21  H   LIG d   1       2.973   1.401  -1.554  0.00  0.00     0.027 H 
ATOM     22  H   LIG d   1       2.003  -0.542  -3.259  0.00  0.00     0.033 H 
ATOM     23  H   LIG d   1       2.643  -0.927  -1.633  0.00  0.00     0.033 H 
ENDROOT
BRANCH   1  24
ATOM     24  N   LIG d   1       7.577  -0.277  -3.464  0.00  0.00    -0.280 N 
ATOM     25  C   LIG d   1       7.874   0.698  -4.345  0.00  0.00     0.262 C 
ATOM     26  O   LIG d   1       7.073   1.006  -5.201  0.00  0.00    -0.270 OA
ATOM     27  H   LIG d   1       8.185  -0.474  -2.734  0.00  0.00     0.155 HD
BRANCH  25  28
ATOM     28  C   LIG d   1       9.202   1.406  -4.265  0.00  0.00     0.045 C 
ATOM     29  H   LIG d   1       9.943   0.743  -3.819  0.00  0.00     0.091 H 
ATOM     30  H   LIG d   1       9.523   1.690  -5.267  0.00  0.00     0.091 H 
BRANCH  28  31
ATOM     31  N   LIG d   1       9.055   2.615  -3.432  0.00  0.00     0.237 N 
ATOM     32  H   LIG d   1       8.179   3.092  -3.678  0.00  0.00     0.202 HD
ATOM     33  H   LIG d   1       9.031   2.344  -2.442  0.00  0.00     0.202 HD
BRANCH  31  34
ATOM     34  C   LIG d   1      10.188   3.533  -3.657  0.00  0.00    -0.020 C 
BRANCH  34  35
ATOM     35  C   LIG d   1      10.142   4.667  -2.631  0.00  0.00    -0.019 C 
ATOM     36  H   LIG d   1      10.876   4.480  -1.847  0.00  0.00     0.029 H 
ATOM     37  H   LIG d   1      10.371   5.612  -3.123  0.00  0.00     0.029 H 
ATOM     38  H   LIG d   1       9.146   4.719  -2.191  0.00  0.00     0.029 H 
ENDBRANCH  34  35
BRANCH  34  39
ATOM     39  C   LIG d   1      11.499   2.759  -3.504  0.00  0.00    -0.019 C 
ATOM     40  H   LIG d   1      11.404   1.786  -3.984  0.00  0.00     0.029 H 
ATOM     41  H   LIG d   1      12.308   3.319  -3.972  0.00  0.00     0.029 H 
ATOM     42  H   LIG d   1      11.718   2.623  -2.444  0.00  0.00     0.029 H 
ENDBRANCH  34  39
BRANCH  34  43
ATOM     43  C   LIG d   1      10.103   4.119  -5.069  0.00  0.00    -0.019 C 
ATOM     44  H   LIG d   1      11.016   3.884  -5.614  0.00  0.00     0.029 H 
ATOM     45  H   LIG d   1       9.247   3.688  -5.588  0.00  0.00     0.029 H 
ATOM     46  H   LIG d   1       9.985   5.200  -5.006  0.00  0.00     0.029 H 
ENDBRANCH  34  43
ENDBRANCH  31  34
ENDBRANCH  28  31
ENDBRANCH  25  28
ENDBRANCH   1  24
TORSDOF 7
ENDMDL
MODEL 4
REMARK VINA RESULT:      -6.2      3.515      6.433
REMARK  7 active torsions:
REMARK  status: ('A' for Active; 'I' for Inactive)
REMARK    1  A    between atoms: C_1  and  C_2 
REMARK    2  A    between atoms: C_2  and  C_3 
REMARK    3  A    between atoms: C_2  and  C_4 
REMARK    4  A    between atoms: C_2  and  N_44 
REMARK    5  A    between atoms: C_5  and  C_6 
REMARK    6  A    between atoms: C_5  and  N_44 
REMARK       I    between atoms: C_6  and  N_8 
REMARK    7  A    between atoms: N_8  and  C_9 
ROOT
ATOM      1  C   LIG d   1       5.723  -0.428  -5.245  0.00  0.00     0.048 A 
ATOM      2  C   LIG d   1       6.787   0.497  -5.150  0.00  0.00     0.022 A 
ATOM      3  C   LIG d   1       7.533   0.875  -6.275  0.00  0.00    -0.051 A 
ATOM      4  C   LIG d   1       8.553   1.767  -6.140  0.00  0.00    -0.061 A 
ATOM      5  C   LIG d   1       8.864   2.311  -4.895  0.00  0.00    -0.060 A 
ATOM      6  C   LIG d   1       8.159   1.968  -3.783  0.00  0.00    -0.036 A 
ATOM      7  C   LIG d   1       7.099   1.049  -3.884  0.00  0.00     0.073 A 
ATOM      8  N   LIG d   1       6.390   0.694  -2.809  0.00  0.00    -0.251 NA
ATOM      9  C   LIG d   1       5.395  -0.167  -2.878  0.00  0.00     0.047 A 
ATOM     10  C   LIG d   1       5.033  -0.751  -4.087  0.00  0.00    -0.004 A 
ATOM     11  C   LIG d   1       3.872  -1.697  -3.873  0.00  0.00    -0.024 C 
ATOM     12  C   LIG d   1       3.839  -1.960  -2.354  0.00  0.00    -0.043 C 
ATOM     13  C   LIG d   1       4.489  -0.685  -1.779  0.00  0.00    -0.010 C 
ATOM     14  H   LIG d   1       7.300   0.459  -7.245  0.00  0.00     0.062 H 
ATOM     15  H   LIG d   1       9.127   2.057  -7.007  0.00  0.00     0.062 H 
ATOM     16  H   LIG d   1       9.677   3.017  -4.812  0.00  0.00     0.062 H 
ATOM     17  H   LIG d   1       8.413   2.400  -2.826  0.00  0.00     0.064 H 
ATOM     18  H   LIG d   1       2.939  -1.231  -4.190  0.00  0.00     0.031 H 
ATOM     19  H   LIG d   1       4.036  -2.626  -4.419  0.00  0.00     0.031 H 
ATOM     20  H   LIG d   1       4.430  -2.842  -2.104  0.00  0.00     0.027 H 
ATOM     21  H   LIG d   1       2.815  -2.066  -1.999  0.00  0.00     0.027 H 
ATOM     22  H   LIG d   1       5.073  -0.927  -0.890  0.00  0.00     0.033 H 
ATOM     23  H   LIG d   1       3.725   0.055  -1.538  0.00  0.00     0.033 H 
ENDROOT
BRANCH   1  24
ATOM     24  N   LIG d   1       5.378  -0.998  -6.465  0.00  0.00    -0.280 N 
ATOM     25  C   LIG d   1       4.387  -0.461  -7.204  0.00  0.00     0.262 C 
ATOM     26  O   LIG d   1       3.858   0.570  -6.850  0.00  0.00    -0.270 OA
ATOM     27  H   LIG d   1       5.851  -1.783  -6.785  0.00  0.00     0.155 HD
BRANCH  25  28
ATOM     28  C   LIG d   1       3.937  -1.143  -8.471  0.00  0.00     0.045 C 
ATOM     29  H   LIG d   1       4.184  -2.203  -8.421  0.00  0.00     0.091 H 
ATOM     30  H   LIG d   1       2.859  -1.025  -8.584  0.00  0.00     0.091 H 
BRANCH  28  31
ATOM     31  N   LIG d   1       4.626  -0.527  -9.621  0.00  0.00     0.237 N 
ATOM     32  H   LIG d   1       5.328   0.140  -9.279  0.00  0.00     0.202 HD
ATOM     33  H   LIG d   1       5.090  -1.261 -10.170  0.00  0.00     0.202 HD
BRANCH  31  34
ATOM     34  C   LIG d   1       3.657   0.182 -10.479  0.00  0.00    -0.020 C 
BRANCH  34  35
ATOM     35  C   LIG d   1       3.779   1.690 -10.252  0.00  0.00    -0.019 C 
ATOM     36  H   LIG d   1       2.872   2.062  -9.774  0.00  0.00     0.029 H 
ATOM     37  H   LIG d   1       4.636   1.893  -9.609  0.00  0.00     0.029 H 
ATOM     38  H   LIG d   1       3.918   2.192 -11.209  0.00  0.00     0.029 H 
ENDBRANCH  34  35
BRANCH  34  39
ATOM     39  C   LIG d   1       3.956  -0.139 -11.944  0.00  0.00    -0.019 C 
ATOM     40  H   LIG d   1       4.382  -1.139 -12.018  0.00  0.00     0.029 H 
ATOM     41  H   LIG d   1       3.032  -0.094 -12.521  0.00  0.00     0.029 H 
ATOM     42  H   LIG d   1       4.666   0.589 -12.338  0.00  0.00     0.029 H 
ENDBRANCH  34  39
BRANCH  34  43
ATOM     43  C   LIG d   1       2.237  -0.272 -10.135  0.00  0.00    -0.019 C 
ATOM     44  H   LIG d   1       2.282  -1.150  -9.492  0.00  0.00     0.029 H 
ATOM     45  H   LIG d   1       1.715   0.532  -9.617  0.00  0.00     0.029 H 
ATOM     46  H   LIG d   1       1.704  -0.520 -11.053  0.00  0.00     0.029 H 
ENDBRANCH  34  43
ENDBRANCH  31  34
ENDBRANCH  28  31
ENDBRANCH  25  28
ENDBRANCH   1  24
TORSDOF 7
ENDMDL
MODEL 5
REMARK VINA RESULT:      -6.2      3.609      5.732
REMARK  7 active torsions:
REMARK  status: ('A' for Active; 'I' for Inactive)
REMARK    1  A    between atoms: C_1  and  C_2 
REMARK    2  A    between atoms: C_2  and  C_3 
REMARK    3  A    between atoms: C_2  and  C_4 
REMARK    4  A    between atoms: C_2  and  N_44 
REMARK    5  A    between atoms: C_5  and  C_6 
REMARK    6  A    between atoms: C_5  and  N_44 
REMARK       I    between atoms: C_6  and  N_8 
REMARK    7  A    between atoms: N_8  and  C_9 
ROOT
ATOM      1  C   LIG d   1       4.123  -0.356  -8.124  0.00  0.00     0.048 A 
ATOM      2  C   LIG d   1       3.370  -0.537  -9.306  0.00  0.00     0.022 A 
ATOM      3  C   LIG d   1       2.036  -0.967  -9.267  0.00  0.00    -0.051 A 
ATOM      4  C   LIG d   1       1.347  -1.132 -10.430  0.00  0.00    -0.061 A 
ATOM      5  C   LIG d   1       1.951  -0.878 -11.659  0.00  0.00    -0.060 A 
ATOM      6  C   LIG d   1       3.243  -0.457 -11.733  0.00  0.00    -0.036 A 
ATOM      7  C   LIG d   1       3.986  -0.276 -10.553  0.00  0.00     0.073 A 
ATOM      8  N   LIG d   1       5.256   0.136 -10.596  0.00  0.00    -0.251 NA
ATOM      9  C   LIG d   1       5.974   0.310  -9.505  0.00  0.00     0.047 A 
ATOM     10  C   LIG d   1       5.436   0.071  -8.245  0.00  0.00    -0.004 A 
ATOM     11  C   LIG d   1       6.478   0.344  -7.182  0.00  0.00    -0.024 C 
ATOM     12  C   LIG d   1       7.826   0.356  -7.930  0.00  0.00    -0.043 C 
ATOM     13  C   LIG d   1       7.412   0.765  -9.359  0.00  0.00    -0.010 C 
ATOM     14  H   LIG d   1       1.559  -1.167  -8.319  0.00  0.00     0.062 H 
ATOM     15  H   LIG d   1       0.320  -1.463 -10.398  0.00  0.00     0.062 H 
ATOM     16  H   LIG d   1       1.383  -1.016 -12.568  0.00  0.00     0.062 H 
ATOM     17  H   LIG d   1       3.695  -0.264 -12.695  0.00  0.00     0.064 H 
ATOM     18  H   LIG d   1       6.300   1.314  -6.718  0.00  0.00     0.031 H 
ATOM     19  H   LIG d   1       6.465  -0.444  -6.430  0.00  0.00     0.031 H 
ATOM     20  H   LIG d   1       8.276  -0.637  -7.927  0.00  0.00     0.027 H 
ATOM     21  H   LIG d   1       8.504   1.091  -7.498  0.00  0.00     0.027 H 
ATOM     22  H   LIG d   1       8.044   0.263 -10.092  0.00  0.00     0.033 H 
ATOM     23  H   LIG d   1       7.482   1.847  -9.479  0.00  0.00     0.033 H 
ENDROOT
BRANCH   1  24
ATOM     24  N   LIG d   1       3.563  -0.599  -6.875  0.00  0.00    -0.280 N 
ATOM     25  C   LIG d   1       2.989   0.406  -6.186  0.00  0.00     0.262 C 
ATOM     26  O   LIG d   1       2.879   1.502  -6.692  0.00  0.00    -0.270 OA
ATOM     27  H   LIG d   1       3.586  -1.494  -6.499  0.00  0.00     0.155 HD
BRANCH  25  28
ATOM     28  C   LIG d   1       2.483   0.168  -4.787  0.00  0.00     0.045 C 
ATOM     29  H   LIG d   1       2.818   0.976  -4.135  0.00  0.00     0.091 H 
ATOM     30  H   LIG d   1       1.393   0.137  -4.795  0.00  0.00     0.091 H 
BRANCH  28  31
ATOM     31  N   LIG d   1       3.012  -1.118  -4.294  0.00  0.00     0.237 N 
ATOM     32  H   LIG d   1       2.231  -1.708  -3.982  0.00  0.00     0.202 HD
ATOM     33  H   LIG d   1       3.517  -1.589  -5.053  0.00  0.00     0.202 HD
BRANCH  31  34
ATOM     34  C   LIG d   1       3.933  -0.893  -3.163  0.00  0.00    -0.020 C 
BRANCH  34  35
ATOM     35  C   LIG d   1       5.364  -0.751  -3.687  0.00  0.00    -0.019 C 
ATOM     36  H   LIG d   1       5.425  -1.161  -4.695  0.00  0.00     0.029 H 
ATOM     37  H   LIG d   1       5.641   0.303  -3.707  0.00  0.00     0.029 H 
ATOM     38  H   LIG d   1       6.046  -1.294  -3.032  0.00  0.00     0.029 H 
ENDBRANCH  34  35
BRANCH  34  39
ATOM     39  C   LIG d   1       3.528   0.388  -2.432  0.00  0.00    -0.019 C 
ATOM     40  H   LIG d   1       3.754   0.289  -1.371  0.00  0.00     0.029 H 
ATOM     41  H   LIG d   1       4.081   1.232  -2.845  0.00  0.00     0.029 H 
ATOM     42  H   LIG d   1       2.458   0.558  -2.562  0.00  0.00     0.029 H 
ENDBRANCH  34  39
BRANCH  34  43
ATOM     43  C   LIG d   1       3.859  -2.077  -2.196  0.00  0.00    -0.019 C 
ATOM     44  H   LIG d   1       3.125  -2.796  -2.559  0.00  0.00     0.029 H 
ATOM     45  H   LIG d   1       4.836  -2.555  -2.132  0.00  0.00     0.029 H 
ATOM     46  H   LIG d   1       3.562  -1.722  -1.210  0.00  0.00     0.029 H 
ENDBRANCH  34  43
ENDBRANCH  31  34
ENDBRANCH  28  31
ENDBRANCH  25  28
ENDBRANCH   1  24
TORSDOF 7
ENDMDL
MODEL 6
REMARK VINA RESULT:      -6.0      3.324      5.690
REMARK  7 active torsions:
REMARK  status: ('A' for Active; 'I' for Inactive)
REMARK    1  A    between atoms: C_1  and  C_2 
REMARK    2  A    between atoms: C_2  and  C_3 
REMARK    3  A    between atoms: C_2  and  C_4 
REMARK    4  A    between atoms: C_2  and  N_44 
REMARK    5  A    between atoms: C_5  and  C_6 
REMARK    6  A    between atoms: C_5  and  N_44 
REMARK       I    between atoms: C_6  and  N_8 
REMARK    7  A    between atoms: N_8  and  C_9 
ROOT
ATOM      1  C   LIG d   1       3.544  -1.133  -8.275  0.00  0.00     0.048 A 
ATOM      2  C   LIG d   1       3.531  -2.264  -9.122  0.00  0.00     0.022 A 
ATOM      3  C   LIG d   1       3.500  -3.566  -8.605  0.00  0.00    -0.051 A 
ATOM      4  C   LIG d   1       3.491  -4.630  -9.457  0.00  0.00    -0.061 A 
ATOM      5  C   LIG d   1       3.513  -4.438 -10.836  0.00  0.00    -0.060 A 
ATOM      6  C   LIG d   1       3.542  -3.187 -11.371  0.00  0.00    -0.036 A 
ATOM      7  C   LIG d   1       3.551  -2.066 -10.523  0.00  0.00     0.073 A 
ATOM      8  N   LIG d   1       3.579  -0.827 -11.021  0.00  0.00    -0.251 NA
ATOM      9  C   LIG d   1       3.592   0.240 -10.247  0.00  0.00     0.047 A 
ATOM     10  C   LIG d   1       3.576   0.123  -8.862  0.00  0.00    -0.004 A 
ATOM     11  C   LIG d   1       3.603   1.497  -8.229  0.00  0.00    -0.024 C 
ATOM     12  C   LIG d   1       4.070   2.448  -9.349  0.00  0.00    -0.043 C 
ATOM     13  C   LIG d   1       3.624   1.707 -10.626  0.00  0.00    -0.010 C 
ATOM     14  H   LIG d   1       3.483  -3.726  -7.537  0.00  0.00     0.062 H 
ATOM     15  H   LIG d   1       3.467  -5.632  -9.058  0.00  0.00     0.062 H 
ATOM     16  H   LIG d   1       3.506  -5.297 -11.491  0.00  0.00     0.062 H 
ATOM     17  H   LIG d   1       3.557  -3.057 -12.444  0.00  0.00     0.064 H 
ATOM     18  H   LIG d   1       2.605   1.779  -7.893  0.00  0.00     0.031 H 
ATOM     19  H   LIG d   1       4.303   1.515  -7.395  0.00  0.00     0.031 H 
ATOM     20  H   LIG d   1       5.154   2.563  -9.327  0.00  0.00     0.027 H 
ATOM     21  H   LIG d   1       3.575   3.415  -9.270  0.00  0.00     0.027 H 
ATOM     22  H   LIG d   1       4.343   1.874 -11.430  0.00  0.00     0.033 H 
ATOM     23  H   LIG d   1       2.632   2.041 -10.932  0.00  0.00     0.033 H 
ENDROOT
BRANCH   1  24
ATOM     24  N   LIG d   1       3.526  -1.275  -6.891  0.00  0.00    -0.280 N 
ATOM     25  C   LIG d   1       4.683  -1.348  -6.206  0.00  0.00     0.262 C 
ATOM     26  O   LIG d   1       5.739  -1.199  -6.782  0.00  0.00    -0.270 OA
ATOM     27  H   LIG d   1       2.678  -1.320  -6.420  0.00  0.00     0.155 HD
BRANCH  25  28
ATOM     28  C   LIG d   1       4.665  -1.613  -4.723  0.00  0.00     0.045 C 
ATOM     29  H   LIG d   1       3.733  -2.110  -4.453  0.00  0.00     0.091 H 
ATOM     30  H   LIG d   1       5.508  -2.251  -4.457  0.00  0.00     0.091 H 
BRANCH  28  31
ATOM     31  N   LIG d   1       4.768  -0.331  -4.001  0.00  0.00     0.237 N 
ATOM     32  H   LIG d   1       5.751  -0.157  -3.756  0.00  0.00     0.202 HD
ATOM     33  H   LIG d   1       4.427   0.427  -4.605  0.00  0.00     0.202 HD
BRANCH  31  34
ATOM     34  C   LIG d   1       3.959  -0.370  -2.768  0.00  0.00    -0.020 C 
BRANCH  34  35
ATOM     35  C   LIG d   1       4.148   0.934  -1.989  0.00  0.00    -0.019 C 
ATOM     36  H   LIG d   1       3.305   1.598  -2.182  0.00  0.00     0.029 H 
ATOM     37  H   LIG d   1       4.200   0.715  -0.922  0.00  0.00     0.029 H 
ATOM     38  H   LIG d   1       5.072   1.417  -2.306  0.00  0.00     0.029 H 
ENDBRANCH  34  35
BRANCH  34  39
ATOM     39  C   LIG d   1       2.485  -0.533  -3.140  0.00  0.00    -0.019 C 
ATOM     40  H   LIG d   1       2.117  -1.486  -2.760  0.00  0.00     0.029 H 
ATOM     41  H   LIG d   1       1.907   0.281  -2.702  0.00  0.00     0.029 H 
ATOM     42  H   LIG d   1       2.379  -0.510  -4.225  0.00  0.00     0.029 H 
ENDBRANCH  34  39
BRANCH  34  43
ATOM     43  C   LIG d   1       4.401  -1.551  -1.900  0.00  0.00    -0.019 C 
ATOM     44  H   LIG d   1       4.835  -2.324  -2.534  0.00  0.00     0.029 H 
ATOM     45  H   LIG d   1       5.144  -1.212  -1.178  0.00  0.00     0.029 H 
ATOM     46  H   LIG d   1       3.538  -1.955  -1.372  0.00  0.00     0.029 H 
ENDBRANCH  34  43
ENDBRANCH  31  34
ENDBRANCH  28  31
ENDBRANCH  25  28
ENDBRANCH   1  24
TORSDOF 7
ENDMDL
MODEL 7
REMARK VINA RESULT:      -5.9      1.044      1.438
REMARK  7 active torsions:
REMARK  status: ('A' for Active; 'I' for Inactive)
REMARK    1  A    between atoms: C_1  and  C_2 
REMARK    2  A    between atoms: C_2  and  C_3 
REMARK    3  A    between atoms: C_2  and  C_4 
REMARK    4  A    between atoms: C_2  and  N_44 
REMARK    5  A    between atoms: C_5  and  C_6 
REMARK    6  A    between atoms: C_5  and  N_44 
REMARK       I    between atoms: C_6  and  N_8 
REMARK    7  A    between atoms: N_8  and  C_9 
ROOT
ATOM      1  C   LIG d   1       4.777  -1.456  -4.562  0.00  0.00     0.048 A 
ATOM      2  C   LIG d   1       4.232  -1.222  -5.844  0.00  0.00     0.022 A 
ATOM      3  C   LIG d   1       4.513  -2.069  -6.926  0.00  0.00    -0.051 A 
ATOM      4  C   LIG d   1       3.970  -1.806  -8.147  0.00  0.00    -0.061 A 
ATOM      5  C   LIG d   1       3.136  -0.706  -8.334  0.00  0.00    -0.060 A 
ATOM      6  C   LIG d   1       2.841   0.135  -7.306  0.00  0.00    -0.036 A 
ATOM      7  C   LIG d   1       3.384  -0.105  -6.031  0.00  0.00     0.073 A 
ATOM      8  N   LIG d   1       3.112   0.704  -5.004  0.00  0.00    -0.251 NA
ATOM      9  C   LIG d   1       3.611   0.503  -3.801  0.00  0.00     0.047 A 
ATOM     10  C   LIG d   1       4.453  -0.573  -3.543  0.00  0.00    -0.004 A 
ATOM     11  C   LIG d   1       4.879  -0.556  -2.092  0.00  0.00    -0.024 C 
ATOM     12  C   LIG d   1       4.565   0.868  -1.594  0.00  0.00    -0.043 C 
ATOM     13  C   LIG d   1       3.417   1.304  -2.529  0.00  0.00    -0.010 C 
ATOM     14  H   LIG d   1       5.159  -2.925  -6.791  0.00  0.00     0.062 H 
ATOM     15  H   LIG d   1       4.187  -2.459  -8.979  0.00  0.00     0.062 H 
ATOM     16  H   LIG d   1       2.717  -0.518  -9.312  0.00  0.00     0.062 H 
ATOM     17  H   LIG d   1       2.192   0.983  -7.469  0.00  0.00     0.064 H 
ATOM     18  H   LIG d   1       4.305  -1.286  -1.520  0.00  0.00     0.031 H 
ATOM     19  H   LIG d   1       5.945  -0.764  -2.008  0.00  0.00     0.031 H 
ATOM     20  H   LIG d   1       5.431   1.518  -1.717  0.00  0.00     0.027 H 
ATOM     21  H   LIG d   1       4.234   0.854  -0.556  0.00  0.00     0.027 H 
ATOM     22  H   LIG d   1       3.487   2.372  -2.740  0.00  0.00     0.033 H 
ATOM     23  H   LIG d   1       2.452   1.071  -2.078  0.00  0.00     0.033 H 
ENDROOT
BRANCH   1  24
ATOM     24  N   LIG d   1       5.616  -2.540  -4.327  0.00  0.00    -0.280 N 
ATOM     25  C   LIG d   1       6.952  -2.393  -4.424  0.00  0.00     0.262 C 
ATOM     26  O   LIG d   1       7.427  -1.296  -4.626  0.00  0.00    -0.270 OA
ATOM     27  H   LIG d   1       5.239  -3.404  -4.093  0.00  0.00     0.155 HD
BRANCH  25  28
ATOM     28  C   LIG d   1       7.855  -3.590  -4.280  0.00  0.00     0.045 C 
ATOM     29  H   LIG d   1       8.862  -3.328  -4.603  0.00  0.00     0.091 H 
ATOM     30  H   LIG d   1       7.877  -3.905  -3.237  0.00  0.00     0.091 H 
BRANCH  28  31
ATOM     31  N   LIG d   1       7.337  -4.689  -5.118  0.00  0.00     0.237 N 
ATOM     32  H   LIG d   1       6.435  -5.006  -4.741  0.00  0.00     0.202 HD
ATOM     33  H   LIG d   1       7.207  -4.350  -6.078  0.00  0.00     0.202 HD
BRANCH  31  34
ATOM     34  C   LIG d   1       8.286  -5.819  -5.125  0.00  0.00    -0.020 C 
BRANCH  34  35
ATOM     35  C   LIG d   1       9.142  -5.779  -3.858  0.00  0.00    -0.019 C 
ATOM     36  H   LIG d   1      10.081  -6.302  -4.036  0.00  0.00     0.029 H 
ATOM     37  H   LIG d   1       9.349  -4.743  -3.592  0.00  0.00     0.029 H 
ATOM     38  H   LIG d   1       8.605  -6.263  -3.041  0.00  0.00     0.029 H 
ENDBRANCH  34  35
BRANCH  34  39
ATOM     39  C   LIG d   1       7.502  -7.132  -5.170  0.00  0.00    -0.019 C 
ATOM     40  H   LIG d   1       6.977  -7.274  -4.226  0.00  0.00     0.029 H 
ATOM     41  H   LIG d   1       6.781  -7.096  -5.987  0.00  0.00     0.029 H 
ATOM     42  H   LIG d   1       8.192  -7.961  -5.331  0.00  0.00     0.029 H 
ENDBRANCH  34  39
BRANCH  34  43
ATOM     43  C   LIG d   1       9.191  -5.722  -6.355  0.00  0.00    -0.019 C 
ATOM     44  H   LIG d   1       8.578  -5.636  -7.251  0.00  0.00     0.029 H 
ATOM     45  H   LIG d   1       9.831  -4.844  -6.266  0.00  0.00     0.029 H 
ATOM     46  H   LIG d   1       9.809  -6.617  -6.422  0.00  0.00     0.029 H 
ENDBRANCH  34  43
ENDBRANCH  31  34
ENDBRANCH  28  31
ENDBRANCH  25  28
ENDBRANCH   1  24
TORSDOF 7
ENDMDL
MODEL 8
REMARK VINA RESULT:      -5.8      2.929      4.865
REMARK  7 active torsions:
REMARK  status: ('A' for Active; 'I' for Inactive)
REMARK    1  A    between atoms: C_1  and  C_2 
REMARK    2  A    between atoms: C_2  and  C_3 
REMARK    3  A    between atoms: C_2  and  C_4 
REMARK    4  A    between atoms: C_2  and  N_44 
REMARK    5  A    between atoms: C_5  and  C_6 
REMARK    6  A    between atoms: C_5  and  N_44 
REMARK       I    between atoms: C_6  and  N_8 
REMARK    7  A    between atoms: N_8  and  C_9 
ROOT
ATOM      1  C   LIG d   1       4.709  -1.940  -5.708  0.00  0.00     0.048 A 
ATOM      2  C   LIG d   1       4.471  -1.346  -4.448  0.00  0.00     0.022 A 
ATOM      3  C   LIG d   1       4.969  -1.910  -3.266  0.00  0.00    -0.051 A 
ATOM      4  C   LIG d   1       4.715  -1.307  -2.071  0.00  0.00    -0.061 A 
ATOM      5  C   LIG d   1       3.965  -0.134  -2.010  0.00  0.00    -0.060 A 
ATOM      6  C   LIG d   1       3.468   0.441  -3.139  0.00  0.00    -0.036 A 
ATOM      7  C   LIG d   1       3.711  -0.153  -4.390  0.00  0.00     0.073 A 
ATOM      8  N   LIG d   1       3.235   0.389  -5.514  0.00  0.00    -0.251 NA
ATOM      9  C   LIG d   1       3.446  -0.151  -6.698  0.00  0.00     0.047 A 
ATOM     10  C   LIG d   1       4.182  -1.322  -6.832  0.00  0.00    -0.004 A 
ATOM     11  C   LIG d   1       4.260  -1.716  -8.291  0.00  0.00    -0.024 C 
ATOM     12  C   LIG d   1       3.143  -0.913  -8.986  0.00  0.00    -0.043 C 
ATOM     13  C   LIG d   1       2.990   0.316  -8.066  0.00  0.00    -0.010 C 
ATOM     14  H   LIG d   1       5.552  -2.819  -3.302  0.00  0.00     0.062 H 
ATOM     15  H   LIG d   1       5.099  -1.742  -1.161  0.00  0.00     0.062 H 
ATOM     16  H   LIG d   1       3.776   0.326  -1.051  0.00  0.00     0.062 H 
ATOM     17  H   LIG d   1       2.889   1.351  -3.073  0.00  0.00     0.064 H 
ATOM     18  H   LIG d   1       5.230  -1.442  -8.706  0.00  0.00     0.031 H 
ATOM     19  H   LIG d   1       4.088  -2.786  -8.403  0.00  0.00     0.031 H 
ATOM     20  H   LIG d   1       2.218  -1.490  -9.018  0.00  0.00     0.027 H 
ATOM     21  H   LIG d   1       3.447  -0.611  -9.988  0.00  0.00     0.027 H 
ATOM     22  H   LIG d   1       1.947   0.632  -8.030  0.00  0.00     0.033 H 
ATOM     23  H   LIG d   1       3.621   1.133  -8.417  0.00  0.00     0.033 H 
ENDROOT
BRANCH   1  24
ATOM     24  N   LIG d   1       5.450  -3.112  -5.818  0.00  0.00    -0.280 N 
ATOM     25  C   LIG d   1       4.823  -4.303  -5.878  0.00  0.00     0.262 C 
ATOM     26  O   LIG d   1       3.612  -4.349  -5.928  0.00  0.00    -0.270 OA
ATOM     27  H   LIG d   1       6.419  -3.071  -5.852  0.00  0.00     0.155 HD
BRANCH  25  28
ATOM     28  C   LIG d   1       5.626  -5.578  -5.885  0.00  0.00     0.045 C 
ATOM     29  H   LIG d   1       5.899  -5.832  -6.909  0.00  0.00     0.091 H 
ATOM     30  H   LIG d   1       6.530  -5.440  -5.291  0.00  0.00     0.091 H 
BRANCH  28  31
ATOM     31  N   LIG d   1       4.814  -6.664  -5.305  0.00  0.00     0.237 N 
ATOM     32  H   LIG d   1       4.901  -6.644  -4.282  0.00  0.00     0.202 HD
ATOM     33  H   LIG d   1       3.830  -6.528  -5.567  0.00  0.00     0.202 HD
BRANCH  31  34
ATOM     34  C   LIG d   1       5.275  -7.973  -5.807  0.00  0.00    -0.020 C 
BRANCH  34  35
ATOM     35  C   LIG d   1       4.870  -9.071  -4.822  0.00  0.00    -0.019 C 
ATOM     36  H   LIG d   1       4.222  -9.791  -5.323  0.00  0.00     0.029 H 
ATOM     37  H   LIG d   1       5.763  -9.580  -4.458  0.00  0.00     0.029 H 
ATOM     38  H   LIG d   1       4.338  -8.628  -3.980  0.00  0.00     0.029 H 
ENDBRANCH  34  35
BRANCH  34  39
ATOM     39  C   LIG d   1       4.629  -8.244  -7.167  0.00  0.00    -0.019 C 
ATOM     40  H   LIG d   1       4.870  -9.257  -7.488  0.00  0.00     0.029 H 
ATOM     41  H   LIG d   1       3.547  -8.137  -7.083  0.00  0.00     0.029 H 
ATOM     42  H   LIG d   1       5.009  -7.531  -7.899  0.00  0.00     0.029 H 
ENDBRANCH  34  39
BRANCH  34  43
ATOM     43  C   LIG d   1       6.797  -7.958  -5.958  0.00  0.00    -0.019 C 
ATOM     44  H   LIG d   1       7.108  -7.015  -6.407  0.00  0.00     0.029 H 
ATOM     45  H   LIG d   1       7.260  -8.065  -4.977  0.00  0.00     0.029 H 
ATOM     46  H   LIG d   1       7.106  -8.785  -6.598  0.00  0.00     0.029 H 
ENDBRANCH  34  43
ENDBRANCH  31  34
ENDBRANCH  28  31
ENDBRANCH  25  28
ENDBRANCH   1  24
TORSDOF 7
ENDMDL
MODEL 9
REMARK VINA RESULT:      -5.7      1.571      1.744
REMARK  7 active torsions:
REMARK  status: ('A' for Active; 'I' for Inactive)
REMARK    1  A    between atoms: C_1  and  C_2 
REMARK    2  A    between atoms: C_2  and  C_3 
REMARK    3  A    between atoms: C_2  and  C_4 
REMARK    4  A    between atoms: C_2  and  N_44 
REMARK    5  A    between atoms: C_5  and  C_6 
REMARK    6  A    between atoms: C_5  and  N_44 
REMARK       I    between atoms: C_6  and  N_8 
REMARK    7  A    between atoms: N_8  and  C_9 
ROOT
ATOM      1  C   LIG d   1       4.903  -1.483  -5.336  0.00  0.00     0.048 A 
ATOM      2  C   LIG d   1       4.292  -0.953  -6.494  0.00  0.00     0.022 A 
ATOM      3  C   LIG d   1       4.637  -1.402  -7.777  0.00  0.00    -0.051 A 
ATOM      4  C   LIG d   1       4.026  -0.862  -8.867  0.00  0.00    -0.061 A 
ATOM      5  C   LIG d   1       3.060   0.132  -8.725  0.00  0.00    -0.060 A 
ATOM      6  C   LIG d   1       2.700   0.589  -7.494  0.00  0.00    -0.036 A 
ATOM      7  C   LIG d   1       3.309   0.055  -6.345  0.00  0.00     0.073 A 
ATOM      8  N   LIG d   1       2.976   0.486  -5.126  0.00  0.00    -0.251 NA
ATOM      9  C   LIG d   1       3.535   0.003  -4.034  0.00  0.00     0.047 A 
ATOM     10  C   LIG d   1       4.508  -0.987  -4.103  0.00  0.00    -0.004 A 
ATOM     11  C   LIG d   1       4.977  -1.345  -2.710  0.00  0.00    -0.024 C 
ATOM     12  C   LIG d   1       4.510  -0.181  -1.815  0.00  0.00    -0.043 C 
ATOM     13  C   LIG d   1       3.288   0.364  -2.583  0.00  0.00    -0.010 C 
ATOM     14  H   LIG d   1       5.385  -2.172  -7.898  0.00  0.00     0.062 H 
ATOM     15  H   LIG d   1       4.292  -1.208  -9.854  0.00  0.00     0.062 H 
ATOM     16  H   LIG d   1       2.589   0.545  -9.604  0.00  0.00     0.062 H 
ATOM     17  H   LIG d   1       1.949   1.360  -7.402  0.00  0.00     0.064 H 
ATOM     18  H   LIG d   1       4.514  -2.276  -2.382  0.00  0.00     0.031 H 
ATOM     19  H   LIG d   1       6.063  -1.433  -2.688  0.00  0.00     0.031 H 
ATOM     20  H   LIG d   1       5.288   0.580  -1.736  0.00  0.00     0.027 H 
ATOM     21  H   LIG d   1       4.218  -0.540  -0.829  0.00  0.00     0.027 H 
ATOM     22  H   LIG d   1       3.222   1.447  -2.469  0.00  0.00     0.033 H 
ATOM     23  H   LIG d   1       2.373  -0.110  -2.225  0.00  0.00     0.033 H 
ENDROOT
BRANCH   1  24
ATOM     24  N   LIG d   1       5.874  -2.475  -5.430  0.00  0.00    -0.280 N 
ATOM     25  C   LIG d   1       5.528  -3.771  -5.299  0.00  0.00     0.262 C 
ATOM     26  O   LIG d   1       4.361  -4.079  -5.191  0.00  0.00    -0.270 OA
ATOM     27  H   LIG d   1       6.800  -2.233  -5.589  0.00  0.00     0.155 HD
BRANCH  25  28
ATOM     28  C   LIG d   1       6.593  -4.837  -5.288  0.00  0.00     0.045 C 
ATOM     29  H   LIG d   1       6.675  -5.261  -4.287  0.00  0.00     0.091 H 
ATOM     30  H   LIG d   1       6.327  -5.623  -5.995  0.00  0.00     0.091 H 
BRANCH  28  31
ATOM     31  N   LIG d   1       7.883  -4.236  -5.678  0.00  0.00     0.237 N 
ATOM     32  H   LIG d   1       8.146  -4.575  -6.611  0.00  0.00     0.202 HD
ATOM     33  H   LIG d   1       7.787  -3.214  -5.699  0.00  0.00     0.202 HD
BRANCH  31  34
ATOM     34  C   LIG d   1       8.934  -4.607  -4.711  0.00  0.00    -0.020 C 
BRANCH  34  35
ATOM     35  C   LIG d   1       8.757  -6.068  -4.295  0.00  0.00    -0.019 C 
ATOM     36  H   LIG d   1       7.749  -6.218  -3.908  0.00  0.00     0.029 H 
ATOM     37  H   LIG d   1       8.912  -6.713  -5.160  0.00  0.00     0.029 H 
ATOM     38  H   LIG d   1       9.485  -6.317  -3.522  0.00  0.00     0.029 H 
ENDBRANCH  34  35
BRANCH  34  39
ATOM     39  C   LIG d   1      10.304  -4.424  -5.366  0.00  0.00    -0.019 C 
ATOM     40  H   LIG d   1      10.551  -3.363  -5.405  0.00  0.00     0.029 H 
ATOM     41  H   LIG d   1      11.059  -4.952  -4.783  0.00  0.00     0.029 H 
ATOM     42  H   LIG d   1      10.280  -4.829  -6.379  0.00  0.00     0.029 H 
ENDBRANCH  34  39
BRANCH  34  43
ATOM     43  C   LIG d   1       8.835  -3.709  -3.475  0.00  0.00    -0.019 C 
ATOM     44  H   LIG d   1       7.869  -3.207  -3.468  0.00  0.00     0.029 H 
ATOM     45  H   LIG d   1       8.936  -4.318  -2.577  0.00  0.00     0.029 H 
ATOM     46  H   LIG d   1       9.632  -2.966  -3.502  0.00  0.00     0.029 H 
ENDBRANCH  34  43
ENDBRANCH  31  34
ENDBRANCH  28  31
ENDBRANCH  25  28
ENDBRANCH   1  24
TORSDOF 7
ENDMDL
MODEL 10
REMARK VINA RESULT:      -5.7      3.368      6.169
REMARK  7 active torsions:
REMARK  status: ('A' for Active; 'I' for Inactive)
REMARK    1  A    between atoms: C_1  and  C_2 
REMARK    2  A    between atoms: C_2  and  C_3 
REMARK    3  A    between atoms: C_2  and  C_4 
REMARK    4  A    between atoms: C_2  and  N_44 
REMARK    5  A    between atoms: C_5  and  C_6 
REMARK    6  A    between atoms: C_5  and  N_44 
REMARK       I    between atoms: C_6  and  N_8 
REMARK    7  A    between atoms: N_8  and  C_9 
ROOT
ATOM      1  C   LIG d   1       4.403   0.213  -8.253  0.00  0.00     0.048 A 
ATOM      2  C   LIG d   1       5.759   0.415  -8.595  0.00  0.00     0.022 A 
ATOM      3  C   LIG d   1       6.688   0.890  -7.658  0.00  0.00    -0.051 A 
ATOM      4  C   LIG d   1       7.986   1.073  -8.029  0.00  0.00    -0.061 A 
ATOM      5  C   LIG d   1       8.402   0.794  -9.329  0.00  0.00    -0.060 A 
ATOM      6  C   LIG d   1       7.527   0.330 -10.262  0.00  0.00    -0.036 A 
ATOM      7  C   LIG d   1       6.180   0.128  -9.915  0.00  0.00     0.073 A 
ATOM      8  N   LIG d   1       5.299  -0.326 -10.811  0.00  0.00    -0.251 NA
ATOM      9  C   LIG d   1       4.030  -0.520 -10.511  0.00  0.00     0.047 A 
ATOM     10  C   LIG d   1       3.545  -0.259  -9.235  0.00  0.00    -0.004 A 
ATOM     11  C   LIG d   1       2.064  -0.562  -9.176  0.00  0.00    -0.024 C 
ATOM     12  C   LIG d   1       1.605  -0.623 -10.646  0.00  0.00    -0.043 C 
ATOM     13  C   LIG d   1       2.899  -1.023 -11.385  0.00  0.00    -0.010 C 
ATOM     14  H   LIG d   1       6.375   1.110  -6.648  0.00  0.00     0.062 H 
ATOM     15  H   LIG d   1       8.700   1.439  -7.307  0.00  0.00     0.062 H 
ATOM     16  H   LIG d   1       9.436   0.948  -9.599  0.00  0.00     0.062 H 
ATOM     17  H   LIG d   1       7.867   0.118 -11.265  0.00  0.00     0.064 H 
ATOM     18  H   LIG d   1       1.893  -1.524  -8.692  0.00  0.00     0.031 H 
ATOM     19  H   LIG d   1       1.538   0.229  -8.643  0.00  0.00     0.031 H 
ATOM     20  H   LIG d   1       1.255   0.354 -10.980  0.00  0.00     0.027 H 
ATOM     21  H   LIG d   1       0.832  -1.379 -10.781  0.00  0.00     0.027 H 
ATOM     22  H   LIG d   1       2.936  -0.546 -12.365  0.00  0.00     0.033 H 
ATOM     23  H   LIG d   1       2.955  -2.107 -11.491  0.00  0.00     0.033 H 
ENDROOT
BRANCH   1  24
ATOM     24  N   LIG d   1       3.941   0.480  -6.969  0.00  0.00    -0.280 N 
ATOM     25  C   LIG d   1       3.874  -0.509  -6.057  0.00  0.00     0.262 C 
ATOM     26  O   LIG d   1       4.302  -1.612  -6.326  0.00  0.00    -0.270 OA
ATOM     27  H   LIG d   1       3.667   1.380  -6.730  0.00  0.00     0.155 HD
BRANCH  25  28
ATOM     28  C   LIG d   1       3.270  -0.246  -4.702  0.00  0.00     0.045 C 
ATOM     29  H   LIG d   1       2.288   0.212  -4.824  0.00  0.00     0.091 H 
ATOM     30  H   LIG d   1       3.168  -1.186  -4.160  0.00  0.00     0.091 H 
BRANCH  28  31
ATOM     31  N   LIG d   1       4.151   0.666  -3.949  0.00  0.00     0.237 N 
ATOM     32  H   LIG d   1       4.919   0.975  -4.557  0.00  0.00     0.202 HD
ATOM     33  H   LIG d   1       3.610   1.483  -3.641  0.00  0.00     0.202 HD
BRANCH  31  34
ATOM     34  C   LIG d   1       4.711  -0.020  -2.768  0.00  0.00    -0.020 C 
BRANCH  34  35
ATOM     35  C   LIG d   1       6.161  -0.419  -3.046  0.00  0.00    -0.019 C 
ATOM     36  H   LIG d   1       6.759   0.477  -3.217  0.00  0.00     0.029 H 
ATOM     37  H   LIG d   1       6.559  -0.961  -2.189  0.00  0.00     0.029 H 
ATOM     38  H   LIG d   1       6.201  -1.056  -3.930  0.00  0.00     0.029 H 
ENDBRANCH  34  35
BRANCH  34  39
ATOM     39  C   LIG d   1       4.663   0.927  -1.568  0.00  0.00    -0.019 C 
ATOM     40  H   LIG d   1       3.628   1.197  -1.359  0.00  0.00     0.029 H 
ATOM     41  H   LIG d   1       5.093   0.432  -0.697  0.00  0.00     0.029 H 
ATOM     42  H   LIG d   1       5.235   1.828  -1.793  0.00  0.00     0.029 H 
ENDBRANCH  34  39
BRANCH  34  43
ATOM     43  C   LIG d   1       3.887  -1.273  -2.463  0.00  0.00    -0.019 C 
ATOM     44  H   LIG d   1       3.675  -1.317  -1.396  0.00  0.00     0.029 H 
ATOM     45  H   LIG d   1       2.950  -1.234  -3.019  0.00  0.00     0.029 H 
ATOM     46  H   LIG d   1       4.449  -2.158  -2.760  0.00  0.00     0.029 H 
ENDBRANCH  34  43
ENDBRANCH  31  34
ENDBRANCH  28  31
ENDBRANCH  25  28
ENDBRANCH   1  24
TORSDOF 7
ENDMDL
