MODEL 1
REMARK VINA RESULT:      -8.1      0.000      0.000
REMARK  6 active torsions:
REMARK  status: ('A' for Active; 'I' for Inactive)
REMARK    1  A    between atoms: C_1  and  C_2 
REMARK    2  A    between atoms: C_4  and  O_31 
REMARK    3  A    between atoms: C_6  and  C_13 
REMARK    4  A    between atoms: C_13  and  S_14 
REMARK    5  A    between atoms: S_14  and  C_15 
REMARK    6  A    between atoms: C_17  and  C_25 
ROOT
ATOM      1  C   LIG d   1       7.889   1.394  -4.377  0.00  0.00     0.115 A 
ATOM      2  C   LIG d   1       8.156   0.040  -4.646  0.00  0.00     0.095 A 
ATOM      3  C   LIG d   1       7.279  -0.924  -4.144  0.00  0.00     0.080 A 
ATOM      4  C   LIG d   1       6.180  -0.510  -3.400  0.00  0.00    -0.013 A 
ATOM      5  C   LIG d   1       5.984   0.835  -3.170  0.00  0.00     0.046 A 
ATOM      6  N   LIG d   1       6.834   1.731  -3.656  0.00  0.00    -0.244 NA
ATOM      7  C   LIG d   1       4.820   1.352  -2.363  0.00  0.00    -0.010 C 
ATOM      8  C   LIG d   1       3.728   0.290  -2.255  0.00  0.00    -0.047 C 
ATOM      9  C   LIG d   1       4.366  -1.015  -1.765  0.00  0.00    -0.049 C 
ATOM     10  C   LIG d   1       5.244  -1.571  -2.884  0.00  0.00    -0.025 C 
ATOM     11  C   LIG d   1       9.302  -0.342  -5.416  0.00  0.00     0.102 C 
ATOM     12  N   LIG d   1      10.210  -0.644  -6.027  0.00  0.00    -0.191 NA
ATOM     13  H   LIG d   1       5.166   1.615  -1.363  0.00  0.00     0.033 H 
ATOM     14  H   LIG d   1       4.413   2.239  -2.848  0.00  0.00     0.033 H 
ATOM     15  H   LIG d   1       2.968   0.616  -1.545  0.00  0.00     0.027 H 
ATOM     16  H   LIG d   1       3.273   0.131  -3.233  0.00  0.00     0.027 H 
ATOM     17  H   LIG d   1       4.978  -0.816  -0.883  0.00  0.00     0.027 H 
ATOM     18  H   LIG d   1       3.587  -1.735  -1.516  0.00  0.00     0.027 H 
ATOM     19  H   LIG d   1       4.609  -1.917  -3.700  0.00  0.00     0.031 H 
ATOM     20  H   LIG d   1       5.827  -2.410  -2.501  0.00  0.00     0.031 H 
ENDROOT
BRANCH   1  21
ATOM     21  S   LIG d   1       8.966   2.643  -4.994  0.00  0.00    -0.100 SA
BRANCH  21  22
ATOM     22  C   LIG d   1       9.550   3.355  -3.436  0.00  0.00     0.026 C 
ATOM     23  H   LIG d   1      10.485   2.875  -3.145  0.00  0.00     0.043 H 
ATOM     24  H   LIG d   1       8.801   3.193  -2.660  0.00  0.00     0.043 H 
BRANCH  22  25
ATOM     25  C   LIG d   1       9.777   4.834  -3.613  0.00  0.00    -0.016 A 
ATOM     26  C   LIG d   1      10.634   5.578  -2.689  0.00  0.00     0.063 A 
ATOM     27  C   LIG d   1      11.263   4.937  -1.610  0.00  0.00     0.128 A 
ATOM     28  C   LIG d   1      10.824   6.956  -2.894  0.00  0.00     0.143 A 
ATOM     29  C   LIG d   1      12.067   5.673  -0.757  0.00  0.00    -0.016 A 
ATOM     30  C   LIG d   1      12.249   7.031  -0.966  0.00  0.00    -0.043 A 
ATOM     31  H   LIG d   1      12.555   5.187   0.074  0.00  0.00     0.066 H 
ATOM     32  C   LIG d   1      11.635   7.670  -2.023  0.00  0.00    -0.015 A 
ATOM     33  H   LIG d   1      11.786   8.729  -2.174  0.00  0.00     0.066 H 
ATOM     34  O   LIG d   1      10.218   7.570  -3.933  0.00  0.00    -0.422 OA
ATOM     35  C   LIG d   1       9.431   6.894  -4.784  0.00  0.00     0.338 A 
ATOM     36  C   LIG d   1       9.196   5.512  -4.638  0.00  0.00     0.028 A 
ATOM     37  O   LIG d   1       8.905   7.490  -5.707  0.00  0.00    -0.245 OA
ATOM     38  H   LIG d   1       8.558   4.993  -5.337  0.00  0.00     0.069 H 
BRANCH  27  39
ATOM     39  O   LIG d   1      11.086   3.608  -1.405  0.00  0.00    -0.506 OA
ATOM     40  H   LIG d   1      11.356   3.056  -2.152  0.00  0.00     0.292 HD
ENDBRANCH  27  39
BRANCH  30  41
ATOM     41  C   LIG d   1      13.128   7.817  -0.028  0.00  0.00    -0.040 C 
ATOM     42  H   LIG d   1      14.171   7.551  -0.197  0.00  0.00     0.028 H 
ATOM     43  H   LIG d   1      12.991   8.882  -0.210  0.00  0.00     0.028 H 
ATOM     44  H   LIG d   1      12.857   7.588   1.002  0.00  0.00     0.028 H 
ENDBRANCH  30  41
ENDBRANCH  22  25
ENDBRANCH  21  22
ENDBRANCH   1  21
BRANCH   3  45
ATOM     45  C   LIG d   1       7.520  -2.389  -4.404  0.00  0.00     0.419 C 
ATOM     46  F   LIG d   1       6.432  -3.132  -3.934  0.00  0.00    -0.166 F 
ATOM     47  F   LIG d   1       7.668  -2.599  -5.780  0.00  0.00    -0.166 F 
ATOM     48  F   LIG d   1       8.683  -2.795  -3.742  0.00  0.00    -0.166 F 
ENDBRANCH   3  45
TORSDOF 6
ENDMDL
MODEL 2
REMARK VINA RESULT:      -8.0      2.414      3.350
REMARK  6 active torsions:
REMARK  status: ('A' for Active; 'I' for Inactive)
REMARK    1  A    between atoms: C_1  and  C_2 
REMARK    2  A    between atoms: C_4  and  O_31 
REMARK    3  A    between atoms: C_6  and  C_13 
REMARK    4  A    between atoms: C_13  and  S_14 
REMARK    5  A    between atoms: S_14  and  C_15 
REMARK    6  A    between atoms: C_17  and  C_25 
ROOT
ATOM      1  C   LIG d   1       6.630  -0.233  -6.050  0.00  0.00     0.115 A 
ATOM      2  C   LIG d   1       6.219  -1.578  -6.033  0.00  0.00     0.095 A 
ATOM      3  C   LIG d   1       5.501  -2.040  -4.929  0.00  0.00     0.080 A 
ATOM      4  C   LIG d   1       5.222  -1.159  -3.891  0.00  0.00    -0.013 A 
ATOM      5  C   LIG d   1       5.662   0.145  -3.972  0.00  0.00     0.046 A 
ATOM      6  N   LIG d   1       6.345   0.560  -5.033  0.00  0.00    -0.244 NA
ATOM      7  C   LIG d   1       5.405   1.151  -2.879  0.00  0.00    -0.010 C 
ATOM      8  C   LIG d   1       4.272   0.678  -1.970  0.00  0.00    -0.047 C 
ATOM      9  C   LIG d   1       4.580  -0.754  -1.516  0.00  0.00    -0.049 C 
ATOM     10  C   LIG d   1       4.434  -1.682  -2.719  0.00  0.00    -0.025 C 
ATOM     11  C   LIG d   1       6.530  -2.453  -7.125  0.00  0.00     0.102 C 
ATOM     12  N   LIG d   1       6.775  -3.146  -7.990  0.00  0.00    -0.191 NA
ATOM     13  H   LIG d   1       6.311   1.278  -2.287  0.00  0.00     0.033 H 
ATOM     14  H   LIG d   1       5.131   2.106  -3.326  0.00  0.00     0.033 H 
ATOM     15  H   LIG d   1       4.201   1.331  -1.101  0.00  0.00     0.027 H 
ATOM     16  H   LIG d   1       3.330   0.693  -2.519  0.00  0.00     0.027 H 
ATOM     17  H   LIG d   1       5.600  -0.806  -1.133  0.00  0.00     0.027 H 
ATOM     18  H   LIG d   1       3.880  -1.050  -0.735  0.00  0.00     0.027 H 
ATOM     19  H   LIG d   1       3.382  -1.750  -2.996  0.00  0.00     0.031 H 
ATOM     20  H   LIG d   1       4.800  -2.675  -2.454  0.00  0.00     0.031 H 
ENDROOT
BRANCH   1  21
ATOM     21  S   LIG d   1       7.533   0.394  -7.426  0.00  0.00    -0.100 SA
BRANCH  21  22
ATOM     22  C   LIG d   1       9.090   0.826  -6.610  0.00  0.00     0.026 C 
ATOM     23  H   LIG d   1       9.915   0.314  -7.107  0.00  0.00     0.043 H 
ATOM     24  H   LIG d   1       9.049   0.521  -5.565  0.00  0.00     0.043 H 
BRANCH  22  25
ATOM     25  C   LIG d   1       9.303   2.316  -6.691  0.00  0.00    -0.016 A 
ATOM     26  C   LIG d   1       9.511   3.112  -5.481  0.00  0.00     0.063 A 
ATOM     27  C   LIG d   1       9.513   2.512  -4.211  0.00  0.00     0.128 A 
ATOM     28  C   LIG d   1       9.712   4.498  -5.601  0.00  0.00     0.143 A 
ATOM     29  C   LIG d   1       9.714   3.296  -3.089  0.00  0.00    -0.016 A 
ATOM     30  C   LIG d   1       9.911   4.662  -3.216  0.00  0.00    -0.043 A 
ATOM     31  H   LIG d   1       9.717   2.841  -2.110  0.00  0.00     0.066 H 
ATOM     32  C   LIG d   1       9.910   5.261  -4.459  0.00  0.00    -0.015 A 
ATOM     33  H   LIG d   1      10.065   6.327  -4.543  0.00  0.00     0.066 H 
ATOM     34  O   LIG d   1       9.710   5.073  -6.823  0.00  0.00    -0.422 OA
ATOM     35  C   LIG d   1       9.520   4.349  -7.938  0.00  0.00     0.338 A 
ATOM     36  C   LIG d   1       9.312   2.956  -7.890  0.00  0.00     0.028 A 
ATOM     37  O   LIG d   1       9.527   4.911  -9.018  0.00  0.00    -0.245 OA
ATOM     38  H   LIG d   1       9.161   2.399  -8.802  0.00  0.00     0.069 H 
BRANCH  27  39
ATOM     39  O   LIG d   1       9.320   1.175  -4.086  0.00  0.00    -0.506 OA
ATOM     40  H   LIG d   1      10.124   0.680  -3.871  0.00  0.00     0.292 HD
ENDBRANCH  27  39
BRANCH  30  41
ATOM     41  C   LIG d   1      10.128   5.500  -1.984  0.00  0.00    -0.040 C 
ATOM     42  H   LIG d   1      10.052   4.872  -1.098  0.00  0.00     0.028 H 
ATOM     43  H   LIG d   1      11.119   5.953  -2.024  0.00  0.00     0.028 H 
ATOM     44  H   LIG d   1       9.373   6.285  -1.940  0.00  0.00     0.028 H 
ENDBRANCH  30  41
ENDBRANCH  22  25
ENDBRANCH  21  22
ENDBRANCH   1  21
BRANCH   3  45
ATOM     45  C   LIG d   1       5.037  -3.473  -4.862  0.00  0.00     0.419 C 
ATOM     46  F   LIG d   1       4.191  -3.740  -5.943  0.00  0.00    -0.166 F 
ATOM     47  F   LIG d   1       6.146  -4.325  -4.917  0.00  0.00    -0.166 F 
ATOM     48  F   LIG d   1       4.345  -3.684  -3.665  0.00  0.00    -0.166 F 
ENDBRANCH   3  45
TORSDOF 6
ENDMDL
MODEL 3
REMARK VINA RESULT:      -7.8      6.629      9.208
REMARK  6 active torsions:
REMARK  status: ('A' for Active; 'I' for Inactive)
REMARK    1  A    between atoms: C_1  and  C_2 
REMARK    2  A    between atoms: C_4  and  O_31 
REMARK    3  A    between atoms: C_6  and  C_13 
REMARK    4  A    between atoms: C_13  and  S_14 
REMARK    5  A    between atoms: S_14  and  C_15 
REMARK    6  A    between atoms: C_17  and  C_25 
ROOT
ATOM      1  C   LIG d   1       5.350  -2.110  -9.107  0.00  0.00     0.115 A 
ATOM      2  C   LIG d   1       4.076  -2.401  -9.626  0.00  0.00     0.095 A 
ATOM      3  C   LIG d   1       3.177  -1.349  -9.812  0.00  0.00     0.080 A 
ATOM      4  C   LIG d   1       3.573  -0.060  -9.477  0.00  0.00    -0.013 A 
ATOM      5  C   LIG d   1       4.836   0.151  -8.966  0.00  0.00     0.046 A 
ATOM      6  N   LIG d   1       5.671  -0.867  -8.797  0.00  0.00    -0.244 NA
ATOM      7  C   LIG d   1       5.326   1.521  -8.572  0.00  0.00    -0.010 C 
ATOM      8  C   LIG d   1       4.464   2.605  -9.214  0.00  0.00    -0.047 C 
ATOM      9  C   LIG d   1       2.993   2.298  -8.910  0.00  0.00    -0.049 C 
ATOM     10  C   LIG d   1       2.587   1.057  -9.701  0.00  0.00    -0.025 C 
ATOM     11  C   LIG d   1       3.709  -3.746  -9.957  0.00  0.00     0.102 C 
ATOM     12  N   LIG d   1       3.418  -4.812 -10.220  0.00  0.00    -0.191 NA
ATOM     13  H   LIG d   1       5.280   1.620  -7.487  0.00  0.00     0.033 H 
ATOM     14  H   LIG d   1       6.358   1.641  -8.900  0.00  0.00     0.033 H 
ATOM     15  H   LIG d   1       4.728   3.578  -8.800  0.00  0.00     0.027 H 
ATOM     16  H   LIG d   1       4.622   2.610 -10.292  0.00  0.00     0.027 H 
ATOM     17  H   LIG d   1       2.870   2.110  -7.843  0.00  0.00     0.027 H 
ATOM     18  H   LIG d   1       2.372   3.143  -9.208  0.00  0.00     0.027 H 
ATOM     19  H   LIG d   1       2.558   1.301 -10.763  0.00  0.00     0.031 H 
ATOM     20  H   LIG d   1       1.597   0.732  -9.379  0.00  0.00     0.031 H 
ENDROOT
BRANCH   1  21
ATOM     21  S   LIG d   1       6.517  -3.406  -8.861  0.00  0.00    -0.100 SA
BRANCH  21  22
ATOM     22  C   LIG d   1       7.152  -2.953  -7.228  0.00  0.00     0.026 C 
ATOM     23  H   LIG d   1       7.302  -1.874  -7.183  0.00  0.00     0.043 H 
ATOM     24  H   LIG d   1       8.101  -3.460  -7.054  0.00  0.00     0.043 H 
BRANCH  22  25
ATOM     25  C   LIG d   1       6.161  -3.367  -6.170  0.00  0.00    -0.016 A 
ATOM     26  C   LIG d   1       5.776  -2.447  -5.100  0.00  0.00     0.063 A 
ATOM     27  C   LIG d   1       6.322  -1.156  -5.024  0.00  0.00     0.128 A 
ATOM     28  C   LIG d   1       4.843  -2.871  -4.137  0.00  0.00     0.143 A 
ATOM     29  C   LIG d   1       5.934  -0.313  -3.998  0.00  0.00    -0.016 A 
ATOM     30  C   LIG d   1       5.015  -0.739  -3.053  0.00  0.00    -0.043 A 
ATOM     31  H   LIG d   1       6.350   0.682  -3.934  0.00  0.00     0.066 H 
ATOM     32  C   LIG d   1       4.472  -2.006  -3.118  0.00  0.00    -0.015 A 
ATOM     33  H   LIG d   1       3.757  -2.324  -2.374  0.00  0.00     0.066 H 
ATOM     34  O   LIG d   1       4.319  -4.113  -4.213  0.00  0.00    -0.422 OA
ATOM     35  C   LIG d   1       4.667  -4.963  -5.192  0.00  0.00     0.338 A 
ATOM     36  C   LIG d   1       5.596  -4.603  -6.189  0.00  0.00     0.028 A 
ATOM     37  O   LIG d   1       4.167  -6.073  -5.219  0.00  0.00    -0.245 OA
ATOM     38  H   LIG d   1       5.859  -5.307  -6.965  0.00  0.00     0.069 H 
BRANCH  27  39
ATOM     39  O   LIG d   1       7.222  -0.738  -5.949  0.00  0.00    -0.506 OA
ATOM     40  H   LIG d   1       8.105  -1.118  -5.839  0.00  0.00     0.292 HD
ENDBRANCH  27  39
BRANCH  30  41
ATOM     41  C   LIG d   1       4.604   0.192  -1.942  0.00  0.00    -0.040 C 
ATOM     42  H   LIG d   1       3.549   0.443  -2.049  0.00  0.00     0.028 H 
ATOM     43  H   LIG d   1       4.764  -0.296  -0.981  0.00  0.00     0.028 H 
ATOM     44  H   LIG d   1       5.201   1.103  -1.990  0.00  0.00     0.028 H 
ENDBRANCH  30  41
ENDBRANCH  22  25
ENDBRANCH  21  22
ENDBRANCH   1  21
BRANCH   3  45
ATOM     45  C   LIG d   1       1.799  -1.607 -10.366  0.00  0.00     0.419 C 
ATOM     46  F   LIG d   1       1.885  -1.831 -11.745  0.00  0.00    -0.166 F 
ATOM     47  F   LIG d   1       1.251  -2.735  -9.744  0.00  0.00    -0.166 F 
ATOM     48  F   LIG d   1       0.984  -0.497 -10.124  0.00  0.00    -0.166 F 
ENDBRANCH   3  45
TORSDOF 6
ENDMDL
MODEL 4
REMARK VINA RESULT:      -7.8      5.633      8.313
REMARK  6 active torsions:
REMARK  status: ('A' for Active; 'I' for Inactive)
REMARK    1  A    between atoms: C_1  and  C_2 
REMARK    2  A    between atoms: C_4  and  O_31 
REMARK    3  A    between atoms: C_6  and  C_13 
REMARK    4  A    between atoms: C_13  and  S_14 
REMARK    5  A    between atoms: S_14  and  C_15 
REMARK    6  A    between atoms: C_17  and  C_25 
ROOT
ATOM      1  C   LIG d   1       6.857  -0.080  -5.914  0.00  0.00     0.115 A 
ATOM      2  C   LIG d   1       6.437  -1.419  -6.016  0.00  0.00     0.095 A 
ATOM      3  C   LIG d   1       5.638  -1.945  -4.998  0.00  0.00     0.080 A 
ATOM      4  C   LIG d   1       5.290  -1.130  -3.928  0.00  0.00    -0.013 A 
ATOM      5  C   LIG d   1       5.743   0.172  -3.891  0.00  0.00     0.046 A 
ATOM      6  N   LIG d   1       6.503   0.647  -4.870  0.00  0.00    -0.244 NA
ATOM      7  C   LIG d   1       5.413   1.107  -2.756  0.00  0.00    -0.010 C 
ATOM      8  C   LIG d   1       4.214   0.588  -1.964  0.00  0.00    -0.047 C 
ATOM      9  C   LIG d   1       4.480  -0.874  -1.583  0.00  0.00    -0.049 C 
ATOM     10  C   LIG d   1       4.416  -1.720  -2.853  0.00  0.00    -0.025 C 
ATOM     11  C   LIG d   1       6.821  -2.224  -7.137  0.00  0.00     0.102 C 
ATOM     12  N   LIG d   1       7.125  -2.862  -8.026  0.00  0.00    -0.191 NA
ATOM     13  H   LIG d   1       6.275   1.185  -2.092  0.00  0.00     0.033 H 
ATOM     14  H   LIG d   1       5.178   2.092  -3.158  0.00  0.00     0.033 H 
ATOM     15  H   LIG d   1       4.085   1.184  -1.061  0.00  0.00     0.027 H 
ATOM     16  H   LIG d   1       3.315   0.649  -2.577  0.00  0.00     0.027 H 
ATOM     17  H   LIG d   1       5.469  -0.961  -1.133  0.00  0.00     0.027 H 
ATOM     18  H   LIG d   1       3.723  -1.213  -0.877  0.00  0.00     0.027 H 
ATOM     19  H   LIG d   1       3.386  -1.758  -3.208  0.00  0.00     0.031 H 
ATOM     20  H   LIG d   1       4.756  -2.732  -2.628  0.00  0.00     0.031 H 
ENDROOT
BRANCH   1  21
ATOM     21  S   LIG d   1       7.862   0.625  -7.177  0.00  0.00    -0.100 SA
BRANCH  21  22
ATOM     22  C   LIG d   1       6.586   1.403  -8.197  0.00  0.00     0.026 C 
ATOM     23  H   LIG d   1       6.908   2.406  -8.480  0.00  0.00     0.043 H 
ATOM     24  H   LIG d   1       5.656   1.466  -7.631  0.00  0.00     0.043 H 
BRANCH  22  25
ATOM     25  C   LIG d   1       6.362   0.579  -9.439  0.00  0.00    -0.016 A 
ATOM     26  C   LIG d   1       5.012   0.204  -9.860  0.00  0.00     0.063 A 
ATOM     27  C   LIG d   1       3.888   0.598  -9.117  0.00  0.00     0.128 A 
ATOM     28  C   LIG d   1       4.849  -0.561 -11.028  0.00  0.00     0.143 A 
ATOM     29  C   LIG d   1       2.625   0.226  -9.546  0.00  0.00    -0.016 A 
ATOM     30  C   LIG d   1       2.473  -0.529 -10.698  0.00  0.00    -0.043 A 
ATOM     31  H   LIG d   1       1.756   0.526  -8.980  0.00  0.00     0.066 H 
ATOM     32  C   LIG d   1       3.572  -0.921 -11.435  0.00  0.00    -0.015 A 
ATOM     33  H   LIG d   1       3.437  -1.509 -12.331  0.00  0.00     0.066 H 
ATOM     34  O   LIG d   1       5.932  -0.937 -11.740  0.00  0.00    -0.422 OA
ATOM     35  C   LIG d   1       7.174  -0.598 -11.361  0.00  0.00     0.338 A 
ATOM     36  C   LIG d   1       7.410   0.167 -10.200  0.00  0.00     0.028 A 
ATOM     37  O   LIG d   1       8.120  -0.960 -12.035  0.00  0.00    -0.245 OA
ATOM     38  H   LIG d   1       8.420   0.425  -9.918  0.00  0.00     0.069 H 
BRANCH  27  39
ATOM     39  O   LIG d   1       4.037   1.337  -7.989  0.00  0.00    -0.506 OA
ATOM     40  H   LIG d   1       3.784   0.873  -7.178  0.00  0.00     0.292 HD
ENDBRANCH  27  39
BRANCH  30  41
ATOM     41  C   LIG d   1       1.092  -0.924 -11.150  0.00  0.00    -0.040 C 
ATOM     42  H   LIG d   1       0.637  -0.099 -11.697  0.00  0.00     0.028 H 
ATOM     43  H   LIG d   1       1.159  -1.797 -11.800  0.00  0.00     0.028 H 
ATOM     44  H   LIG d   1       0.479  -1.166 -10.282  0.00  0.00     0.028 H 
ENDBRANCH  30  41
ENDBRANCH  22  25
ENDBRANCH  21  22
ENDBRANCH   1  21
BRANCH   3  45
ATOM     45  C   LIG d   1       5.162  -3.373  -5.060  0.00  0.00     0.419 C 
ATOM     46  F   LIG d   1       4.417  -3.667  -3.913  0.00  0.00    -0.166 F 
ATOM     47  F   LIG d   1       4.361  -3.549  -6.194  0.00  0.00    -0.166 F 
ATOM     48  F   LIG d   1       6.265  -4.230  -5.131  0.00  0.00    -0.166 F 
ENDBRANCH   3  45
TORSDOF 6
ENDMDL
MODEL 5
REMARK VINA RESULT:      -7.8      3.622      4.797
REMARK  6 active torsions:
REMARK  status: ('A' for Active; 'I' for Inactive)
REMARK    1  A    between atoms: C_1  and  C_2 
REMARK    2  A    between atoms: C_4  and  O_31 
REMARK    3  A    between atoms: C_6  and  C_13 
REMARK    4  A    between atoms: C_13  and  S_14 
REMARK    5  A    between atoms: S_14  and  C_15 
REMARK    6  A    between atoms: C_17  and  C_25 
ROOT
ATOM      1  C   LIG d   1       6.292  -0.800  -6.635  0.00  0.00     0.115 A 
ATOM      2  C   LIG d   1       5.055  -0.289  -7.067  0.00  0.00     0.095 A 
ATOM      3  C   LIG d   1       4.005  -0.224  -6.149  0.00  0.00     0.080 A 
ATOM      4  C   LIG d   1       4.219  -0.665  -4.850  0.00  0.00    -0.013 A 
ATOM      5  C   LIG d   1       5.457  -1.160  -4.497  0.00  0.00     0.046 A 
ATOM      6  N   LIG d   1       6.439  -1.214  -5.389  0.00  0.00    -0.244 NA
ATOM      7  C   LIG d   1       5.756  -1.666  -3.109  0.00  0.00    -0.010 C 
ATOM      8  C   LIG d   1       4.718  -1.148  -2.114  0.00  0.00    -0.047 C 
ATOM      9  C   LIG d   1       3.322  -1.461  -2.663  0.00  0.00    -0.049 C 
ATOM     10  C   LIG d   1       3.072  -0.570  -3.878  0.00  0.00    -0.025 C 
ATOM     11  C   LIG d   1       4.877   0.154  -8.418  0.00  0.00     0.102 C 
ATOM     12  N   LIG d   1       4.736   0.506  -9.488  0.00  0.00    -0.191 NA
ATOM     13  H   LIG d   1       5.738  -2.756  -3.112  0.00  0.00     0.033 H 
ATOM     14  H   LIG d   1       6.745  -1.323  -2.807  0.00  0.00     0.033 H 
ATOM     15  H   LIG d   1       4.853  -1.643  -1.152  0.00  0.00     0.027 H 
ATOM     16  H   LIG d   1       4.832  -0.071  -1.992  0.00  0.00     0.027 H 
ATOM     17  H   LIG d   1       3.270  -2.509  -2.960  0.00  0.00     0.027 H 
ATOM     18  H   LIG d   1       2.572  -1.258  -1.899  0.00  0.00     0.027 H 
ATOM     19  H   LIG d   1       2.965   0.464  -3.550  0.00  0.00     0.031 H 
ATOM     20  H   LIG d   1       2.154  -0.887  -4.374  0.00  0.00     0.031 H 
ENDROOT
BRANCH   1  21
ATOM     21  S   LIG d   1       7.646  -0.895  -7.757  0.00  0.00    -0.100 SA
BRANCH  21  22
ATOM     22  C   LIG d   1       8.978  -0.283  -6.698  0.00  0.00     0.026 C 
ATOM     23  H   LIG d   1       9.904  -0.808  -6.938  0.00  0.00     0.043 H 
ATOM     24  H   LIG d   1       8.721  -0.459  -5.653  0.00  0.00     0.043 H 
BRANCH  22  25
ATOM     25  C   LIG d   1       9.165   1.195  -6.927  0.00  0.00    -0.016 A 
ATOM     26  C   LIG d   1       9.349   2.113  -5.803  0.00  0.00     0.063 A 
ATOM     27  C   LIG d   1       9.350   1.644  -4.479  0.00  0.00     0.128 A 
ATOM     28  C   LIG d   1       9.525   3.483  -6.062  0.00  0.00     0.143 A 
ATOM     29  C   LIG d   1       9.527   2.542  -3.441  0.00  0.00    -0.016 A 
ATOM     30  C   LIG d   1       9.700   3.891  -3.705  0.00  0.00    -0.043 A 
ATOM     31  H   LIG d   1       9.531   2.189  -2.420  0.00  0.00     0.066 H 
ATOM     32  C   LIG d   1       9.700   4.361  -5.002  0.00  0.00    -0.015 A 
ATOM     33  H   LIG d   1       9.836   5.416  -5.193  0.00  0.00     0.066 H 
ATOM     34  O   LIG d   1       9.524   3.931  -7.336  0.00  0.00    -0.422 OA
ATOM     35  C   LIG d   1       9.356   3.094  -8.373  0.00  0.00     0.338 A 
ATOM     36  C   LIG d   1       9.173   1.709  -8.185  0.00  0.00     0.028 A 
ATOM     37  O   LIG d   1       9.362   3.544  -9.504  0.00  0.00    -0.245 OA
ATOM     38  H   LIG d   1       9.039   1.060  -9.037  0.00  0.00     0.069 H 
BRANCH  27  39
ATOM     39  O   LIG d   1       9.181   0.323  -4.220  0.00  0.00    -0.506 OA
ATOM     40  H   LIG d   1       9.352   0.078  -3.300  0.00  0.00     0.292 HD
ENDBRANCH  27  39
BRANCH  30  41
ATOM     41  C   LIG d   1       9.892   4.854  -2.562  0.00  0.00    -0.040 C 
ATOM     42  H   LIG d   1       9.318   4.516  -1.701  0.00  0.00     0.028 H 
ATOM     43  H   LIG d   1      10.949   4.899  -2.299  0.00  0.00     0.028 H 
ATOM     44  H   LIG d   1       9.550   5.845  -2.861  0.00  0.00     0.028 H 
ENDBRANCH  30  41
ENDBRANCH  22  25
ENDBRANCH  21  22
ENDBRANCH   1  21
BRANCH   3  45
ATOM     45  C   LIG d   1       2.659   0.316  -6.563  0.00  0.00     0.419 C 
ATOM     46  F   LIG d   1       2.166  -0.433  -7.636  0.00  0.00    -0.166 F 
ATOM     47  F   LIG d   1       1.770   0.227  -5.485  0.00  0.00    -0.166 F 
ATOM     48  F   LIG d   1       2.792   1.653  -6.949  0.00  0.00    -0.166 F 
ENDBRANCH   3  45
TORSDOF 6
ENDMDL
MODEL 6
REMARK VINA RESULT:      -7.7      5.319      7.815
REMARK  6 active torsions:
REMARK  status: ('A' for Active; 'I' for Inactive)
REMARK    1  A    between atoms: C_1  and  C_2 
REMARK    2  A    between atoms: C_4  and  O_31 
REMARK    3  A    between atoms: C_6  and  C_13 
REMARK    4  A    between atoms: C_13  and  S_14 
REMARK    5  A    between atoms: S_14  and  C_15 
REMARK    6  A    between atoms: C_17  and  C_25 
ROOT
ATOM      1  C   LIG d   1       6.947  -2.293  -5.379  0.00  0.00     0.115 A 
ATOM      2  C   LIG d   1       7.668  -1.085  -5.396  0.00  0.00     0.095 A 
ATOM      3  C   LIG d   1       7.276  -0.065  -4.528  0.00  0.00     0.080 A 
ATOM      4  C   LIG d   1       6.194  -0.279  -3.683  0.00  0.00    -0.013 A 
ATOM      5  C   LIG d   1       5.530  -1.486  -3.724  0.00  0.00     0.046 A 
ATOM      6  N   LIG d   1       5.920  -2.440  -4.561  0.00  0.00    -0.244 NA
ATOM      7  C   LIG d   1       4.342  -1.782  -2.845  0.00  0.00    -0.010 C 
ATOM      8  C   LIG d   1       4.289  -0.808  -1.669  0.00  0.00    -0.047 C 
ATOM      9  C   LIG d   1       4.388   0.620  -2.218  0.00  0.00    -0.049 C 
ATOM     10  C   LIG d   1       5.804   0.835  -2.748  0.00  0.00    -0.025 C 
ATOM     11  C   LIG d   1       8.777  -0.907  -6.285  0.00  0.00     0.102 C 
ATOM     12  N   LIG d   1       9.657  -0.766  -6.989  0.00  0.00    -0.191 NA
ATOM     13  H   LIG d   1       3.428  -1.687  -3.431  0.00  0.00     0.033 H 
ATOM     14  H   LIG d   1       4.421  -2.800  -2.464  0.00  0.00     0.033 H 
ATOM     15  H   LIG d   1       3.348  -0.931  -1.133  0.00  0.00     0.027 H 
ATOM     16  H   LIG d   1       5.124  -1.001  -0.995  0.00  0.00     0.027 H 
ATOM     17  H   LIG d   1       3.669   0.753  -3.027  0.00  0.00     0.027 H 
ATOM     18  H   LIG d   1       4.181   1.335  -1.422  0.00  0.00     0.027 H 
ATOM     19  H   LIG d   1       6.501   0.861  -1.910  0.00  0.00     0.031 H 
ATOM     20  H   LIG d   1       5.848   1.785  -3.281  0.00  0.00     0.031 H 
ENDROOT
BRANCH   1  21
ATOM     21  S   LIG d   1       7.409  -3.609  -6.454  0.00  0.00    -0.100 SA
BRANCH  21  22
ATOM     22  C   LIG d   1       6.081  -3.497  -7.679  0.00  0.00     0.026 C 
ATOM     23  H   LIG d   1       5.123  -3.398  -7.167  0.00  0.00     0.043 H 
ATOM     24  H   LIG d   1       6.075  -4.398  -8.291  0.00  0.00     0.043 H 
BRANCH  22  25
ATOM     25  C   LIG d   1       6.309  -2.294  -8.558  0.00  0.00    -0.016 A 
ATOM     26  C   LIG d   1       5.390  -1.156  -8.527  0.00  0.00     0.063 A 
ATOM     27  C   LIG d   1       4.268  -1.154  -7.682  0.00  0.00     0.128 A 
ATOM     28  C   LIG d   1       5.642  -0.051  -9.360  0.00  0.00     0.143 A 
ATOM     29  C   LIG d   1       3.421  -0.060  -7.679  0.00  0.00    -0.016 A 
ATOM     30  C   LIG d   1       3.677   1.024  -8.503  0.00  0.00    -0.043 A 
ATOM     31  H   LIG d   1       2.557  -0.051  -7.031  0.00  0.00     0.066 H 
ATOM     32  C   LIG d   1       4.776   1.032  -9.337  0.00  0.00    -0.015 A 
ATOM     33  H   LIG d   1       4.963   1.885  -9.974  0.00  0.00     0.066 H 
ATOM     34  O   LIG d   1       6.722  -0.056 -10.171  0.00  0.00    -0.422 OA
ATOM     35  C   LIG d   1       7.569  -1.096 -10.204  0.00  0.00     0.338 A 
ATOM     36  C   LIG d   1       7.376  -2.235  -9.397  0.00  0.00     0.028 A 
ATOM     37  O   LIG d   1       8.530  -1.055 -10.952  0.00  0.00    -0.245 OA
ATOM     38  H   LIG d   1       8.073  -3.058  -9.445  0.00  0.00     0.069 H 
BRANCH  27  39
ATOM     39  O   LIG d   1       4.017  -2.216  -6.875  0.00  0.00    -0.506 OA
ATOM     40  H   LIG d   1       3.902  -1.982  -5.943  0.00  0.00     0.292 HD
ENDBRANCH  27  39
BRANCH  30  41
ATOM     41  C   LIG d   1       2.745   2.208  -8.487  0.00  0.00    -0.040 C 
ATOM     42  H   LIG d   1       2.529   2.487  -7.456  0.00  0.00     0.028 H 
ATOM     43  H   LIG d   1       3.214   3.047  -9.000  0.00  0.00     0.028 H 
ATOM     44  H   LIG d   1       1.816   1.946  -8.995  0.00  0.00     0.028 H 
ENDBRANCH  30  41
ENDBRANCH  22  25
ENDBRANCH  21  22
ENDBRANCH   1  21
BRANCH   3  45
ATOM     45  C   LIG d   1       8.016   1.249  -4.507  0.00  0.00     0.419 C 
ATOM     46  F   LIG d   1       7.519   2.048  -3.472  0.00  0.00    -0.166 F 
ATOM     47  F   LIG d   1       9.380   1.013  -4.301  0.00  0.00    -0.166 F 
ATOM     48  F   LIG d   1       7.835   1.904  -5.729  0.00  0.00    -0.166 F 
ENDBRANCH   3  45
TORSDOF 6
ENDMDL
MODEL 7
REMARK VINA RESULT:      -7.5      4.339      6.074
REMARK  6 active torsions:
REMARK  status: ('A' for Active; 'I' for Inactive)
REMARK    1  A    between atoms: C_1  and  C_2 
REMARK    2  A    between atoms: C_4  and  O_31 
REMARK    3  A    between atoms: C_6  and  C_13 
REMARK    4  A    between atoms: C_13  and  S_14 
REMARK    5  A    between atoms: S_14  and  C_15 
REMARK    6  A    between atoms: C_17  and  C_25 
ROOT
ATOM      1  C   LIG d   1       5.801  -2.235  -6.217  0.00  0.00     0.115 A 
ATOM      2  C   LIG d   1       4.937  -1.403  -6.950  0.00  0.00     0.095 A 
ATOM      3  C   LIG d   1       4.058  -0.575  -6.249  0.00  0.00     0.080 A 
ATOM      4  C   LIG d   1       4.070  -0.604  -4.860  0.00  0.00    -0.013 A 
ATOM      5  C   LIG d   1       4.941  -1.449  -4.207  0.00  0.00     0.046 A 
ATOM      6  N   LIG d   1       5.765  -2.229  -4.896  0.00  0.00    -0.244 NA
ATOM      7  C   LIG d   1       4.999  -1.540  -2.703  0.00  0.00    -0.010 C 
ATOM      8  C   LIG d   1       4.345  -0.316  -2.066  0.00  0.00    -0.047 C 
ATOM      9  C   LIG d   1       2.952  -0.136  -2.681  0.00  0.00    -0.049 C 
ATOM     10  C   LIG d   1       3.120   0.310  -4.132  0.00  0.00    -0.025 C 
ATOM     11  C   LIG d   1       4.956  -1.407  -8.383  0.00  0.00     0.102 C 
ATOM     12  N   LIG d   1       4.973  -1.409  -9.518  0.00  0.00    -0.191 NA
ATOM     13  H   LIG d   1       4.475  -2.439  -2.377  0.00  0.00     0.033 H 
ATOM     14  H   LIG d   1       6.040  -1.596  -2.387  0.00  0.00     0.033 H 
ATOM     15  H   LIG d   1       4.254  -0.466  -0.990  0.00  0.00     0.027 H 
ATOM     16  H   LIG d   1       4.950   0.568  -2.264  0.00  0.00     0.027 H 
ATOM     17  H   LIG d   1       2.411  -1.082  -2.648  0.00  0.00     0.027 H 
ATOM     18  H   LIG d   1       2.400   0.622  -2.125  0.00  0.00     0.027 H 
ATOM     19  H   LIG d   1       3.515   1.327  -4.151  0.00  0.00     0.031 H 
ATOM     20  H   LIG d   1       2.150   0.292  -4.629  0.00  0.00     0.031 H 
ENDROOT
BRANCH   1  21
ATOM     21  S   LIG d   1       6.930  -3.293  -7.060  0.00  0.00    -0.100 SA
BRANCH  21  22
ATOM     22  C   LIG d   1       8.495  -2.502  -6.615  0.00  0.00     0.026 C 
ATOM     23  H   LIG d   1       9.324  -3.152  -6.900  0.00  0.00     0.043 H 
ATOM     24  H   LIG d   1       8.522  -2.330  -5.539  0.00  0.00     0.043 H 
BRANCH  22  25
ATOM     25  C   LIG d   1       8.617  -1.185  -7.338  0.00  0.00    -0.016 A 
ATOM     26  C   LIG d   1       8.732   0.071  -6.597  0.00  0.00     0.063 A 
ATOM     27  C   LIG d   1       8.726   0.086  -5.193  0.00  0.00     0.128 A 
ATOM     28  C   LIG d   1       8.849   1.276  -7.310  0.00  0.00     0.143 A 
ATOM     29  C   LIG d   1       8.837   1.293  -4.525  0.00  0.00    -0.016 A 
ATOM     30  C   LIG d   1       8.952   2.477  -5.236  0.00  0.00    -0.043 A 
ATOM     31  H   LIG d   1       8.835   1.312  -3.446  0.00  0.00     0.066 H 
ATOM     32  C   LIG d   1       8.958   2.473  -6.616  0.00  0.00    -0.015 A 
ATOM     33  H   LIG d   1       9.048   3.403  -7.157  0.00  0.00     0.066 H 
ATOM     34  O   LIG d   1       8.854   1.259  -8.661  0.00  0.00    -0.422 OA
ATOM     35  C   LIG d   1       8.749   0.110  -9.347  0.00  0.00     0.338 A 
ATOM     36  C   LIG d   1       8.628  -1.134  -8.696  0.00  0.00     0.028 A 
ATOM     37  O   LIG d   1       8.758   0.144 -10.565  0.00  0.00    -0.245 OA
ATOM     38  H   LIG d   1       8.544  -2.042  -9.273  0.00  0.00     0.069 H 
BRANCH  27  39
ATOM     39  O   LIG d   1       8.614  -1.073  -4.496  0.00  0.00    -0.506 OA
ATOM     40  H   LIG d   1       7.706  -1.396  -4.413  0.00  0.00     0.292 HD
ENDBRANCH  27  39
BRANCH  30  41
ATOM     41  C   LIG d   1       9.073   3.782  -4.494  0.00  0.00    -0.040 C 
ATOM     42  H   LIG d   1       8.797   4.603  -5.154  0.00  0.00     0.028 H 
ATOM     43  H   LIG d   1       8.407   3.771  -3.631  0.00  0.00     0.028 H 
ATOM     44  H   LIG d   1      10.100   3.915  -4.157  0.00  0.00     0.028 H 
ENDBRANCH  30  41
ENDBRANCH  22  25
ENDBRANCH  21  22
ENDBRANCH   1  21
BRANCH   3  45
ATOM     45  C   LIG d   1       3.111   0.336  -6.988  0.00  0.00     0.419 C 
ATOM     46  F   LIG d   1       2.457   1.170  -6.075  0.00  0.00    -0.166 F 
ATOM     47  F   LIG d   1       3.831   1.117  -7.900  0.00  0.00    -0.166 F 
ATOM     48  F   LIG d   1       2.166  -0.433  -7.676  0.00  0.00    -0.166 F 
ENDBRANCH   3  45
TORSDOF 6
ENDMDL
MODEL 8
REMARK VINA RESULT:      -7.5      6.338      8.505
REMARK  6 active torsions:
REMARK  status: ('A' for Active; 'I' for Inactive)
REMARK    1  A    between atoms: C_1  and  C_2 
REMARK    2  A    between atoms: C_4  and  O_31 
REMARK    3  A    between atoms: C_6  and  C_13 
REMARK    4  A    between atoms: C_13  and  S_14 
REMARK    5  A    between atoms: S_14  and  C_15 
REMARK    6  A    between atoms: C_17  and  C_25 
ROOT
ATOM      1  C   LIG d   1       4.805  -2.582  -8.424  0.00  0.00     0.115 A 
ATOM      2  C   LIG d   1       3.603  -2.754  -9.134  0.00  0.00     0.095 A 
ATOM      3  C   LIG d   1       2.931  -1.618  -9.590  0.00  0.00     0.080 A 
ATOM      4  C   LIG d   1       3.472  -0.366  -9.325  0.00  0.00    -0.013 A 
ATOM      5  C   LIG d   1       4.651  -0.272  -8.618  0.00  0.00     0.046 A 
ATOM      6  N   LIG d   1       5.270  -1.367  -8.193  0.00  0.00    -0.244 NA
ATOM      7  C   LIG d   1       5.288   1.054  -8.286  0.00  0.00    -0.010 C 
ATOM      8  C   LIG d   1       4.731   2.156  -9.185  0.00  0.00    -0.047 C 
ATOM      9  C   LIG d   1       3.200   2.105  -9.124  0.00  0.00    -0.049 C 
ATOM     10  C   LIG d   1       2.732   0.840  -9.841  0.00  0.00    -0.025 C 
ATOM     11  C   LIG d   1       3.080  -4.065  -9.383  0.00  0.00     0.102 C 
ATOM     12  N   LIG d   1       2.667  -5.103  -9.581  0.00  0.00    -0.191 NA
ATOM     13  H   LIG d   1       5.081   1.301  -7.245  0.00  0.00     0.033 H 
ATOM     14  H   LIG d   1       6.365   0.982  -8.431  0.00  0.00     0.033 H 
ATOM     15  H   LIG d   1       5.079   3.127  -8.834  0.00  0.00     0.027 H 
ATOM     16  H   LIG d   1       5.063   1.995 -10.211  0.00  0.00     0.027 H 
ATOM     17  H   LIG d   1       2.874   2.078  -8.083  0.00  0.00     0.027 H 
ATOM     18  H   LIG d   1       2.783   2.983  -9.617  0.00  0.00     0.027 H 
ATOM     19  H   LIG d   1       2.917   0.944 -10.910  0.00  0.00     0.031 H 
ATOM     20  H   LIG d   1       1.663   0.706  -9.673  0.00  0.00     0.031 H 
ENDROOT
BRANCH   1  21
ATOM     21  S   LIG d   1       5.688  -3.987  -7.834  0.00  0.00    -0.100 SA
BRANCH  21  22
ATOM     22  C   LIG d   1       5.389  -3.825  -6.057  0.00  0.00     0.026 C 
ATOM     23  H   LIG d   1       5.568  -4.784  -5.570  0.00  0.00     0.043 H 
ATOM     24  H   LIG d   1       4.357  -3.518  -5.889  0.00  0.00     0.043 H 
BRANCH  22  25
ATOM     25  C   LIG d   1       6.321  -2.788  -5.483  0.00  0.00    -0.016 A 
ATOM     26  C   LIG d   1       5.848  -1.815  -4.499  0.00  0.00     0.063 A 
ATOM     27  C   LIG d   1       4.512  -1.815  -4.066  0.00  0.00     0.128 A 
ATOM     28  C   LIG d   1       6.751  -0.869  -3.985  0.00  0.00     0.143 A 
ATOM     29  C   LIG d   1       4.100  -0.879  -3.133  0.00  0.00    -0.016 A 
ATOM     30  C   LIG d   1       4.997   0.050  -2.631  0.00  0.00    -0.043 A 
ATOM     31  H   LIG d   1       3.074  -0.874  -2.794  0.00  0.00     0.066 H 
ATOM     32  C   LIG d   1       6.311   0.059  -3.051  0.00  0.00    -0.015 A 
ATOM     33  H   LIG d   1       6.999   0.789  -2.651  0.00  0.00     0.066 H 
ATOM     34  O   LIG d   1       8.035  -0.871  -4.403  0.00  0.00    -0.422 OA
ATOM     35  C   LIG d   1       8.477  -1.761  -5.305  0.00  0.00     0.338 A 
ATOM     36  C   LIG d   1       7.625  -2.736  -5.862  0.00  0.00     0.028 A 
ATOM     37  O   LIG d   1       9.644  -1.725  -5.652  0.00  0.00    -0.245 OA
ATOM     38  H   LIG d   1       8.007  -3.439  -6.587  0.00  0.00     0.069 H 
BRANCH  27  39
ATOM     39  O   LIG d   1       3.633  -2.725  -4.556  0.00  0.00    -0.506 OA
ATOM     40  H   LIG d   1       3.568  -2.728  -5.522  0.00  0.00     0.292 HD
ENDBRANCH  27  39
BRANCH  30  41
ATOM     41  C   LIG d   1       4.531   1.061  -1.616  0.00  0.00    -0.040 C 
ATOM     42  H   LIG d   1       3.491   0.865  -1.358  0.00  0.00     0.028 H 
ATOM     43  H   LIG d   1       5.148   0.986  -0.721  0.00  0.00     0.028 H 
ATOM     44  H   LIG d   1       4.620   2.063  -2.034  0.00  0.00     0.028 H 
ENDBRANCH  30  41
ENDBRANCH  22  25
ENDBRANCH  21  22
ENDBRANCH   1  21
BRANCH   3  45
ATOM     45  C   LIG d   1       1.639  -1.749 -10.356  0.00  0.00     0.419 C 
ATOM     46  F   LIG d   1       0.891  -0.576 -10.212  0.00  0.00    -0.166 F 
ATOM     47  F   LIG d   1       1.920  -1.959 -11.710  0.00  0.00    -0.166 F 
ATOM     48  F   LIG d   1       0.909  -2.832  -9.857  0.00  0.00    -0.166 F 
ENDBRANCH   3  45
TORSDOF 6
ENDMDL
MODEL 9
REMARK VINA RESULT:      -7.4      1.812      2.186
REMARK  6 active torsions:
REMARK  status: ('A' for Active; 'I' for Inactive)
REMARK    1  A    between atoms: C_1  and  C_2 
REMARK    2  A    between atoms: C_4  and  O_31 
REMARK    3  A    between atoms: C_6  and  C_13 
REMARK    4  A    between atoms: C_13  and  S_14 
REMARK    5  A    between atoms: S_14  and  C_15 
REMARK    6  A    between atoms: C_17  and  C_25 
ROOT
ATOM      1  C   LIG d   1       7.779   1.443  -4.093  0.00  0.00     0.115 A 
ATOM      2  C   LIG d   1       8.116   0.135  -4.485  0.00  0.00     0.095 A 
ATOM      3  C   LIG d   1       7.265  -0.910  -4.119  0.00  0.00     0.080 A 
ATOM      4  C   LIG d   1       6.123  -0.619  -3.384  0.00  0.00    -0.013 A 
ATOM      5  C   LIG d   1       5.858   0.686  -3.028  0.00  0.00     0.046 A 
ATOM      6  N   LIG d   1       6.685   1.661  -3.386  0.00  0.00    -0.244 NA
ATOM      7  C   LIG d   1       4.644   1.071  -2.222  0.00  0.00    -0.010 C 
ATOM      8  C   LIG d   1       3.597  -0.041  -2.266  0.00  0.00    -0.047 C 
ATOM      9  C   LIG d   1       4.274  -1.362  -1.883  0.00  0.00    -0.049 C 
ATOM     10  C   LIG d   1       5.216  -1.765  -3.015  0.00  0.00    -0.025 C 
ATOM     11  C   LIG d   1       9.306  -0.119  -5.242  0.00  0.00     0.102 C 
ATOM     12  N   LIG d   1      10.248  -0.320  -5.843  0.00  0.00    -0.191 NA
ATOM     13  H   LIG d   1       4.940   1.244  -1.187  0.00  0.00     0.033 H 
ATOM     14  H   LIG d   1       4.215   1.984  -2.631  0.00  0.00     0.033 H 
ATOM     15  H   LIG d   1       2.797   0.180  -1.558  0.00  0.00     0.027 H 
ATOM     16  H   LIG d   1       3.185  -0.118  -3.272  0.00  0.00     0.027 H 
ATOM     17  H   LIG d   1       4.843  -1.229  -0.962  0.00  0.00     0.027 H 
ATOM     18  H   LIG d   1       3.520  -2.134  -1.740  0.00  0.00     0.027 H 
ATOM     19  H   LIG d   1       4.628  -2.051  -3.887  0.00  0.00     0.031 H 
ATOM     20  H   LIG d   1       5.822  -2.613  -2.695  0.00  0.00     0.031 H 
ENDROOT
BRANCH   1  21
ATOM     21  S   LIG d   1       8.822   2.791  -4.537  0.00  0.00    -0.100 SA
BRANCH  21  22
ATOM     22  C   LIG d   1       9.884   2.863  -3.074  0.00  0.00     0.026 C 
ATOM     23  H   LIG d   1      10.634   2.073  -3.130  0.00  0.00     0.043 H 
ATOM     24  H   LIG d   1       9.279   2.727  -2.178  0.00  0.00     0.043 H 
BRANCH  22  25
ATOM     25  C   LIG d   1      10.571   4.204  -3.016  0.00  0.00    -0.016 A 
ATOM     26  C   LIG d   1      12.022   4.312  -3.165  0.00  0.00     0.063 A 
ATOM     27  C   LIG d   1      12.817   3.171  -3.360  0.00  0.00     0.128 A 
ATOM     28  C   LIG d   1      12.622   5.583  -3.111  0.00  0.00     0.143 A 
ATOM     29  C   LIG d   1      14.187   3.311  -3.497  0.00  0.00    -0.016 A 
ATOM     30  C   LIG d   1      14.769   4.567  -3.442  0.00  0.00    -0.043 A 
ATOM     31  H   LIG d   1      14.804   2.438  -3.648  0.00  0.00     0.066 H 
ATOM     32  C   LIG d   1      13.998   5.695  -3.251  0.00  0.00    -0.015 A 
ATOM     33  H   LIG d   1      14.466   6.667  -3.210  0.00  0.00     0.066 H 
ATOM     34  O   LIG d   1      11.855   6.678  -2.924  0.00  0.00    -0.422 OA
ATOM     35  C   LIG d   1      10.523   6.587  -2.787  0.00  0.00     0.338 A 
ATOM     36  C   LIG d   1       9.857   5.345  -2.831  0.00  0.00     0.028 A 
ATOM     37  O   LIG d   1       9.873   7.603  -2.620  0.00  0.00    -0.245 OA
ATOM     38  H   LIG d   1       8.785   5.301  -2.717  0.00  0.00     0.069 H 
BRANCH  27  39
ATOM     39  O   LIG d   1      12.247   1.941  -3.414  0.00  0.00    -0.506 OA
ATOM     40  H   LIG d   1      11.406   1.918  -3.892  0.00  0.00     0.292 HD
ENDBRANCH  27  39
BRANCH  30  41
ATOM     41  C   LIG d   1      16.262   4.702  -3.594  0.00  0.00    -0.040 C 
ATOM     42  H   LIG d   1      16.628   3.941  -4.281  0.00  0.00     0.028 H 
ATOM     43  H   LIG d   1      16.499   5.690  -3.988  0.00  0.00     0.028 H 
ATOM     44  H   LIG d   1      16.739   4.575  -2.622  0.00  0.00     0.028 H 
ENDBRANCH  30  41
ENDBRANCH  22  25
ENDBRANCH  21  22
ENDBRANCH   1  21
BRANCH   3  45
ATOM     45  C   LIG d   1       7.581  -2.329  -4.515  0.00  0.00     0.419 C 
ATOM     46  F   LIG d   1       8.785  -2.723  -3.921  0.00  0.00    -0.166 F 
ATOM     47  F   LIG d   1       6.551  -3.173  -4.085  0.00  0.00    -0.166 F 
ATOM     48  F   LIG d   1       7.700  -2.410  -5.907  0.00  0.00    -0.166 F 
ENDBRANCH   3  45
TORSDOF 6
ENDMDL
MODEL 10
REMARK VINA RESULT:      -7.4      3.896      5.474
REMARK  6 active torsions:
REMARK  status: ('A' for Active; 'I' for Inactive)
REMARK    1  A    between atoms: C_1  and  C_2 
REMARK    2  A    between atoms: C_4  and  O_31 
REMARK    3  A    between atoms: C_6  and  C_13 
REMARK    4  A    between atoms: C_13  and  S_14 
REMARK    5  A    between atoms: S_14  and  C_15 
REMARK    6  A    between atoms: C_17  and  C_25 
ROOT
ATOM      1  C   LIG d   1       6.839  -0.141  -4.403  0.00  0.00     0.115 A 
ATOM      2  C   LIG d   1       5.787  -0.345  -3.492  0.00  0.00     0.095 A 
ATOM      3  C   LIG d   1       5.125  -1.574  -3.505  0.00  0.00     0.080 A 
ATOM      4  C   LIG d   1       5.527  -2.544  -4.415  0.00  0.00    -0.013 A 
ATOM      5  C   LIG d   1       6.562  -2.273  -5.283  0.00  0.00     0.046 A 
ATOM      6  N   LIG d   1       7.175  -1.095  -5.252  0.00  0.00    -0.244 NA
ATOM      7  C   LIG d   1       7.042  -3.275  -6.302  0.00  0.00    -0.010 C 
ATOM      8  C   LIG d   1       6.569  -4.680  -5.936  0.00  0.00    -0.047 C 
ATOM      9  C   LIG d   1       5.056  -4.634  -5.691  0.00  0.00    -0.049 C 
ATOM     10  C   LIG d   1       4.802  -3.865  -4.397  0.00  0.00    -0.025 C 
ATOM     11  C   LIG d   1       5.404   0.685  -2.572  0.00  0.00     0.102 C 
ATOM     12  N   LIG d   1       5.102   1.500  -1.842  0.00  0.00    -0.191 NA
ATOM     13  H   LIG d   1       6.648  -3.007  -7.283  0.00  0.00     0.033 H 
ATOM     14  H   LIG d   1       8.131  -3.260  -6.336  0.00  0.00     0.033 H 
ATOM     15  H   LIG d   1       6.787  -5.365  -6.756  0.00  0.00     0.027 H 
ATOM     16  H   LIG d   1       7.077  -5.015  -5.033  0.00  0.00     0.027 H 
ATOM     17  H   LIG d   1       4.565  -4.128  -6.522  0.00  0.00     0.027 H 
ATOM     18  H   LIG d   1       4.668  -5.648  -5.598  0.00  0.00     0.027 H 
ATOM     19  H   LIG d   1       5.156  -4.456  -3.552  0.00  0.00     0.031 H 
ATOM     20  H   LIG d   1       3.732  -3.686  -4.288  0.00  0.00     0.031 H 
ENDROOT
BRANCH   1  21
ATOM     21  S   LIG d   1       7.706   1.393  -4.417  0.00  0.00    -0.100 SA
BRANCH  21  22
ATOM     22  C   LIG d   1       8.898   1.068  -5.739  0.00  0.00     0.026 C 
ATOM     23  H   LIG d   1       8.923  -0.001  -5.952  0.00  0.00     0.043 H 
ATOM     24  H   LIG d   1       9.888   1.400  -5.425  0.00  0.00     0.043 H 
BRANCH  22  25
ATOM     25  C   LIG d   1       8.489   1.818  -6.981  0.00  0.00    -0.016 A 
ATOM     26  C   LIG d   1       9.213   3.016  -7.408  0.00  0.00     0.063 A 
ATOM     27  C   LIG d   1      10.304   3.503  -6.672  0.00  0.00     0.128 A 
ATOM     28  C   LIG d   1       8.801   3.682  -8.576  0.00  0.00     0.143 A 
ATOM     29  C   LIG d   1      10.966   4.638  -7.107  0.00  0.00    -0.016 A 
ATOM     30  C   LIG d   1      10.553   5.289  -8.259  0.00  0.00    -0.043 A 
ATOM     31  H   LIG d   1      11.807   5.018  -6.547  0.00  0.00     0.066 H 
ATOM     32  C   LIG d   1       9.481   4.818  -8.990  0.00  0.00    -0.015 A 
ATOM     33  H   LIG d   1       9.171   5.336  -9.885  0.00  0.00     0.066 H 
ATOM     34  O   LIG d   1       7.751   3.211  -9.282  0.00  0.00    -0.422 OA
ATOM     35  C   LIG d   1       7.082   2.113  -8.896  0.00  0.00     0.338 A 
ATOM     36  C   LIG d   1       7.441   1.397  -7.736  0.00  0.00     0.028 A 
ATOM     37  O   LIG d   1       6.142   1.725  -9.566  0.00  0.00    -0.245 OA
ATOM     38  H   LIG d   1       6.884   0.517  -7.449  0.00  0.00     0.069 H 
BRANCH  27  39
ATOM     39  O   LIG d   1      10.709   2.866  -5.544  0.00  0.00    -0.506 OA
ATOM     40  H   LIG d   1      11.012   1.959  -5.692  0.00  0.00     0.292 HD
ENDBRANCH  27  39
BRANCH  30  41
ATOM     41  C   LIG d   1      11.285   6.523  -8.719  0.00  0.00    -0.040 C 
ATOM     42  H   LIG d   1      10.574   7.337  -8.857  0.00  0.00     0.028 H 
ATOM     43  H   LIG d   1      12.021   6.809  -7.968  0.00  0.00     0.028 H 
ATOM     44  H   LIG d   1      11.790   6.316  -9.662  0.00  0.00     0.028 H 
ENDBRANCH  30  41
ENDBRANCH  22  25
ENDBRANCH  21  22
ENDBRANCH   1  21
BRANCH   3  45
ATOM     45  C   LIG d   1       3.991  -1.843  -2.549  0.00  0.00     0.419 C 
ATOM     46  F   LIG d   1       3.725  -3.216  -2.515  0.00  0.00    -0.166 F 
ATOM     47  F   LIG d   1       4.347  -1.405  -1.269  0.00  0.00    -0.166 F 
ATOM     48  F   LIG d   1       2.849  -1.157  -2.976  0.00  0.00    -0.166 F 
ENDBRANCH   3  45
TORSDOF 6
ENDMDL
