MODEL 1
REMARK VINA RESULT:      -6.3      0.000      0.000
REMARK  4 active torsions:
REMARK  status: ('A' for Active; 'I' for Inactive)
REMARK    1  A    between atoms: C_2  and  C_3 
REMARK    2  A    between atoms: C_3  and  O_4 
REMARK    3  A    between atoms: O_4  and  C_5 
REMARK    4  A    between atoms: N_15  and  C_18 
ROOT
ATOM      1  C   LIG d   1       3.070  -0.367 -10.015  0.00  0.00     0.063 C 
ATOM      2  H   LIG d   1       3.209   0.660 -10.354  0.00  0.00     0.060 H 
ATOM      3  C   LIG d   1       4.426  -1.073  -9.978  0.00  0.00    -0.011 C 
ATOM      4  C   LIG d   1       5.382  -0.309  -9.050  0.00  0.00     0.019 C 
ATOM      5  N   LIG d   1       4.687  -0.104  -7.777  0.00  0.00    -0.273 N 
ATOM      6  C   LIG d   1       3.321   0.457  -7.680  0.00  0.00     0.107 C 
ATOM      7  H   LIG d   1       3.306   1.522  -7.913  0.00  0.00     0.060 H 
ATOM      8  C   LIG d   1       2.431  -0.358  -8.623  0.00  0.00     0.001 C 
ATOM      9  C   LIG d   1       2.951   0.199  -6.236  0.00  0.00     0.248 C 
ATOM     10  O   LIG d   1       1.871   0.373  -5.715  0.00  0.00    -0.273 OA
ATOM     11  N   LIG d   1       4.075  -0.267  -5.651  0.00  0.00    -0.193 N 
ATOM     12  C   LIG d   1       5.080  -0.384  -6.532  0.00  0.00     0.316 C 
ATOM     13  O   LIG d   1       6.212  -0.709  -6.234  0.00  0.00    -0.252 OA
ATOM     14  H   LIG d   1       4.294  -2.090  -9.606  0.00  0.00     0.030 H 
ATOM     15  H   LIG d   1       4.845  -1.107 -10.983  0.00  0.00     0.030 H 
ATOM     16  H   LIG d   1       6.287  -0.894  -8.887  0.00  0.00     0.047 H 
ATOM     17  H   LIG d   1       5.638   0.653  -9.493  0.00  0.00     0.047 H 
ATOM     18  H   LIG d   1       1.443   0.099  -8.678  0.00  0.00     0.031 H 
ATOM     19  H   LIG d   1       2.345  -1.380  -8.254  0.00  0.00     0.031 H 
ENDROOT
BRANCH  11  20
ATOM     20  C   LIG d   1       4.180  -0.587  -4.290  0.00  0.00     0.048 A 
ATOM     21  C   LIG d   1       4.418   0.413  -3.357  0.00  0.00    -0.004 A 
ATOM     22  C   LIG d   1       4.521   0.094  -2.015  0.00  0.00     0.125 A 
ATOM     23  H   LIG d   1       4.523   1.438  -3.679  0.00  0.00     0.067 H 
ATOM     24  C   LIG d   1       4.386  -1.221  -1.603  0.00  0.00    -0.026 A 
ATOM     25  F   LIG d   1       4.754   1.065  -1.106  0.00  0.00    -0.205 F 
ATOM     26  C   LIG d   1       4.148  -2.218  -2.531  0.00  0.00    -0.057 A 
ATOM     27  H   LIG d   1       4.466  -1.469  -0.555  0.00  0.00     0.065 H 
ATOM     28  C   LIG d   1       4.039  -1.904  -3.872  0.00  0.00    -0.040 A 
ATOM     29  H   LIG d   1       4.041  -3.243  -2.207  0.00  0.00     0.062 H 
ATOM     30  H   LIG d   1       3.848  -2.683  -4.595  0.00  0.00     0.064 H 
ENDBRANCH  11  20
BRANCH   1  31
ATOM     31  O   LIG d   1       2.207  -1.051 -10.926  0.00  0.00    -0.372 OA
BRANCH  31  32
ATOM     32  C   LIG d   1       1.326  -1.986 -10.301  0.00  0.00     0.066 C 
ATOM     33  H   LIG d   1       1.501  -1.986  -9.224  0.00  0.00     0.060 H 
ATOM     34  H   LIG d   1       0.293  -1.703 -10.502  0.00  0.00     0.060 H 
BRANCH  32  35
ATOM     35  C   LIG d   1       1.584  -3.365 -10.851  0.00  0.00    -0.066 C 
ATOM     36  C   LIG d   1       2.283  -4.228 -10.155  0.00  0.00    -0.101 C 
ATOM     37  H   LIG d   1       2.468  -5.216 -10.549  0.00  0.00     0.053 H 
ATOM     38  H   LIG d   1       2.673  -3.951  -9.187  0.00  0.00     0.053 H 
ATOM     39  H   LIG d   1       1.194  -3.642 -11.819  0.00  0.00     0.059 H 
ENDBRANCH  32  35
ENDBRANCH  31  32
ENDBRANCH   1  31
TORSDOF 4
ENDMDL
MODEL 2
REMARK VINA RESULT:      -6.1      2.652      4.781
REMARK  4 active torsions:
REMARK  status: ('A' for Active; 'I' for Inactive)
REMARK    1  A    between atoms: C_2  and  C_3 
REMARK    2  A    between atoms: C_3  and  O_4 
REMARK    3  A    between atoms: O_4  and  C_5 
REMARK    4  A    between atoms: N_15  and  C_18 
ROOT
ATOM      1  C   LIG d   1       6.957   1.330  -9.327  0.00  0.00     0.063 C 
ATOM      2  H   LIG d   1       7.009   0.515 -10.049  0.00  0.00     0.060 H 
ATOM      3  C   LIG d   1       5.535   1.892  -9.302  0.00  0.00    -0.011 C 
ATOM      4  C   LIG d   1       4.543   0.774  -8.947  0.00  0.00     0.019 C 
ATOM      5  N   LIG d   1       5.037   0.120  -7.733  0.00  0.00    -0.273 N 
ATOM      6  C   LIG d   1       6.427  -0.361  -7.580  0.00  0.00     0.107 C 
ATOM      7  H   LIG d   1       6.618  -1.245  -8.189  0.00  0.00     0.060 H 
ATOM      8  C   LIG d   1       7.351   0.806  -7.943  0.00  0.00     0.001 C 
ATOM      9  C   LIG d   1       6.515  -0.676  -6.102  0.00  0.00     0.248 C 
ATOM     10  O   LIG d   1       7.507  -0.985  -5.477  0.00  0.00    -0.273 OA
ATOM     11  N   LIG d   1       5.260  -0.539  -5.626  0.00  0.00    -0.193 N 
ATOM     12  C   LIG d   1       4.409  -0.136  -6.583  0.00  0.00     0.316 C 
ATOM     13  O   LIG d   1       3.211  -0.016  -6.421  0.00  0.00    -0.252 OA
ATOM     14  H   LIG d   1       5.472   2.684  -8.555  0.00  0.00     0.030 H 
ATOM     15  H   LIG d   1       5.288   2.298 -10.283  0.00  0.00     0.030 H 
ATOM     16  H   LIG d   1       3.556   1.199  -8.763  0.00  0.00     0.047 H 
ATOM     17  H   LIG d   1       4.490   0.053  -9.763  0.00  0.00     0.047 H 
ATOM     18  H   LIG d   1       8.385   0.460  -7.963  0.00  0.00     0.031 H 
ATOM     19  H   LIG d   1       7.242   1.602  -7.206  0.00  0.00     0.031 H 
ENDROOT
BRANCH  11  20
ATOM     20  C   LIG d   1       4.890  -0.788  -4.298  0.00  0.00     0.048 A 
ATOM     21  C   LIG d   1       4.970   0.224  -3.351  0.00  0.00    -0.004 A 
ATOM     22  C   LIG d   1       4.604  -0.026  -2.040  0.00  0.00     0.125 A 
ATOM     23  H   LIG d   1       5.316   1.206  -3.638  0.00  0.00     0.067 H 
ATOM     24  C   LIG d   1       4.159  -1.285  -1.674  0.00  0.00    -0.026 A 
ATOM     25  F   LIG d   1       4.682   0.958  -1.119  0.00  0.00    -0.205 F 
ATOM     26  C   LIG d   1       4.078  -2.294  -2.615  0.00  0.00    -0.057 A 
ATOM     27  H   LIG d   1       3.873  -1.479  -0.650  0.00  0.00     0.065 H 
ATOM     28  C   LIG d   1       4.437  -2.048  -3.926  0.00  0.00    -0.040 A 
ATOM     29  H   LIG d   1       3.729  -3.274  -2.327  0.00  0.00     0.062 H 
ATOM     30  H   LIG d   1       4.369  -2.835  -4.662  0.00  0.00     0.064 H 
ENDBRANCH  11  20
BRANCH   1  31
ATOM     31  O   LIG d   1       7.865   2.363  -9.716  0.00  0.00    -0.372 OA
BRANCH  31  32
ATOM     32  C   LIG d   1       8.527   2.998  -8.620  0.00  0.00     0.066 C 
ATOM     33  H   LIG d   1       7.788   3.312  -7.883  0.00  0.00     0.060 H 
ATOM     34  H   LIG d   1       9.224   2.297  -8.161  0.00  0.00     0.060 H 
BRANCH  32  35
ATOM     35  C   LIG d   1       9.282   4.203  -9.119  0.00  0.00    -0.066 C 
ATOM     36  C   LIG d   1       8.633   5.294  -9.443  0.00  0.00    -0.101 C 
ATOM     37  H   LIG d   1       9.173   6.158  -9.800  0.00  0.00     0.053 H 
ATOM     38  H   LIG d   1       7.558   5.330  -9.351  0.00  0.00     0.053 H 
ATOM     39  H   LIG d   1      10.357   4.167  -9.211  0.00  0.00     0.059 H 
ENDBRANCH  32  35
ENDBRANCH  31  32
ENDBRANCH   1  31
TORSDOF 4
ENDMDL
MODEL 3
REMARK VINA RESULT:      -5.8      1.912      2.682
REMARK  4 active torsions:
REMARK  status: ('A' for Active; 'I' for Inactive)
REMARK    1  A    between atoms: C_2  and  C_3 
REMARK    2  A    between atoms: C_3  and  O_4 
REMARK    3  A    between atoms: O_4  and  C_5 
REMARK    4  A    between atoms: N_15  and  C_18 
ROOT
ATOM      1  C   LIG d   1       4.458   0.080 -10.092  0.00  0.00     0.063 C 
ATOM      2  H   LIG d   1       3.653  -0.471 -10.579  0.00  0.00     0.060 H 
ATOM      3  C   LIG d   1       3.924   1.427  -9.604  0.00  0.00    -0.011 C 
ATOM      4  C   LIG d   1       2.748   1.200  -8.642  0.00  0.00     0.019 C 
ATOM      5  N   LIG d   1       3.190   0.238  -7.630  0.00  0.00    -0.273 N 
ATOM      6  C   LIG d   1       3.835  -1.051  -7.964  0.00  0.00     0.107 C 
ATOM      7  H   LIG d   1       3.125  -1.758  -8.394  0.00  0.00     0.060 H 
ATOM      8  C   LIG d   1       4.994  -0.742  -8.916  0.00  0.00     0.001 C 
ATOM      9  C   LIG d   1       4.352  -1.528  -6.624  0.00  0.00     0.248 C 
ATOM     10  O   LIG d   1       5.064  -2.486  -6.414  0.00  0.00    -0.273 OA
ATOM     11  N   LIG d   1       3.856  -0.662  -5.715  0.00  0.00    -0.193 N 
ATOM     12  C   LIG d   1       3.145   0.315  -6.298  0.00  0.00     0.316 C 
ATOM     13  O   LIG d   1       2.534   1.169  -5.686  0.00  0.00    -0.252 OA
ATOM     14  H   LIG d   1       4.718   1.966  -9.086  0.00  0.00     0.030 H 
ATOM     15  H   LIG d   1       3.586   2.015 -10.457  0.00  0.00     0.030 H 
ATOM     16  H   LIG d   1       2.474   2.141  -8.163  0.00  0.00     0.047 H 
ATOM     17  H   LIG d   1       1.894   0.800  -9.189  0.00  0.00     0.047 H 
ATOM     18  H   LIG d   1       5.421  -1.674  -9.286  0.00  0.00     0.031 H 
ATOM     19  H   LIG d   1       5.758  -0.170  -8.388  0.00  0.00     0.031 H 
ENDROOT
BRANCH  11  20
ATOM     20  C   LIG d   1       4.058  -0.772  -4.332  0.00  0.00     0.048 A 
ATOM     21  C   LIG d   1       4.487   0.328  -3.602  0.00  0.00    -0.004 A 
ATOM     22  C   LIG d   1       4.686   0.216  -2.238  0.00  0.00     0.125 A 
ATOM     23  H   LIG d   1       4.665   1.270  -4.099  0.00  0.00     0.067 H 
ATOM     24  C   LIG d   1       4.456  -0.992  -1.601  0.00  0.00    -0.026 A 
ATOM     25  F   LIG d   1       5.103   1.285  -1.526  0.00  0.00    -0.205 F 
ATOM     26  C   LIG d   1       4.028  -2.089  -2.327  0.00  0.00    -0.057 A 
ATOM     27  H   LIG d   1       4.611  -1.079  -0.536  0.00  0.00     0.065 H 
ATOM     28  C   LIG d   1       3.824  -1.981  -3.689  0.00  0.00    -0.040 A 
ATOM     29  H   LIG d   1       3.849  -3.029  -1.828  0.00  0.00     0.062 H 
ATOM     30  H   LIG d   1       3.485  -2.836  -4.254  0.00  0.00     0.064 H 
ENDBRANCH  11  20
BRANCH   1  31
ATOM     31  O   LIG d   1       5.512   0.303 -11.031  0.00  0.00    -0.372 OA
BRANCH  31  32
ATOM     32  C   LIG d   1       5.544  -0.641 -12.104  0.00  0.00     0.066 C 
ATOM     33  H   LIG d   1       6.459  -0.503 -12.680  0.00  0.00     0.060 H 
ATOM     34  H   LIG d   1       5.517  -1.652 -11.699  0.00  0.00     0.060 H 
BRANCH  32  35
ATOM     35  C   LIG d   1       4.350  -0.425 -12.998  0.00  0.00    -0.066 C 
ATOM     36  C   LIG d   1       4.015  -1.339 -13.875  0.00  0.00    -0.101 C 
ATOM     37  H   LIG d   1       3.160  -1.186 -14.515  0.00  0.00     0.053 H 
ATOM     38  H   LIG d   1       4.594  -2.247 -13.956  0.00  0.00     0.053 H 
ATOM     39  H   LIG d   1       3.771   0.483 -12.916  0.00  0.00     0.059 H 
ENDBRANCH  32  35
ENDBRANCH  31  32
ENDBRANCH   1  31
TORSDOF 4
ENDMDL
MODEL 4
REMARK VINA RESULT:      -5.8      5.469      6.831
REMARK  4 active torsions:
REMARK  status: ('A' for Active; 'I' for Inactive)
REMARK    1  A    between atoms: C_2  and  C_3 
REMARK    2  A    between atoms: C_3  and  O_4 
REMARK    3  A    between atoms: O_4  and  C_5 
REMARK    4  A    between atoms: N_15  and  C_18 
ROOT
ATOM      1  C   LIG d   1       6.289  -8.670  -5.408  0.00  0.00     0.063 C 
ATOM      2  H   LIG d   1       6.551  -8.877  -6.446  0.00  0.00     0.060 H 
ATOM      3  C   LIG d   1       7.505  -8.085  -4.689  0.00  0.00    -0.011 C 
ATOM      4  C   LIG d   1       7.966  -6.808  -5.407  0.00  0.00     0.019 C 
ATOM      5  N   LIG d   1       6.793  -5.947  -5.569  0.00  0.00    -0.273 N 
ATOM      6  C   LIG d   1       5.512  -6.421  -6.138  0.00  0.00     0.107 C 
ATOM      7  H   LIG d   1       5.588  -6.597  -7.211  0.00  0.00     0.060 H 
ATOM      8  C   LIG d   1       5.117  -7.685  -5.369  0.00  0.00     0.001 C 
ATOM      9  C   LIG d   1       4.562  -5.285  -5.828  0.00  0.00     0.248 C 
ATOM     10  O   LIG d   1       3.362  -5.269  -5.991  0.00  0.00    -0.273 OA
ATOM     11  N   LIG d   1       5.332  -4.294  -5.329  0.00  0.00    -0.193 N 
ATOM     12  C   LIG d   1       6.619  -4.666  -5.237  0.00  0.00     0.316 C 
ATOM     13  O   LIG d   1       7.518  -3.925  -4.891  0.00  0.00    -0.252 OA
ATOM     14  H   LIG d   1       7.235  -7.844  -3.659  0.00  0.00     0.030 H 
ATOM     15  H   LIG d   1       8.314  -8.815  -4.690  0.00  0.00     0.030 H 
ATOM     16  H   LIG d   1       8.720  -6.297  -4.808  0.00  0.00     0.047 H 
ATOM     17  H   LIG d   1       8.379  -7.062  -6.384  0.00  0.00     0.047 H 
ATOM     18  H   LIG d   1       4.242  -8.139  -5.836  0.00  0.00     0.031 H 
ATOM     19  H   LIG d   1       4.890  -7.428  -4.334  0.00  0.00     0.031 H 
ENDROOT
BRANCH  11  20
ATOM     20  C   LIG d   1       4.848  -3.033  -4.956  0.00  0.00     0.048 A 
ATOM     21  C   LIG d   1       4.474  -2.793  -3.641  0.00  0.00    -0.004 A 
ATOM     22  C   LIG d   1       3.996  -1.547  -3.275  0.00  0.00     0.125 A 
ATOM     23  H   LIG d   1       4.556  -3.578  -2.904  0.00  0.00     0.067 H 
ATOM     24  C   LIG d   1       3.892  -0.541  -4.221  0.00  0.00    -0.026 A 
ATOM     25  F   LIG d   1       3.631  -1.312  -1.997  0.00  0.00    -0.205 F 
ATOM     26  C   LIG d   1       4.265  -0.778  -5.531  0.00  0.00    -0.057 A 
ATOM     27  H   LIG d   1       3.519   0.432  -3.935  0.00  0.00     0.065 H 
ATOM     28  C   LIG d   1       4.748  -2.019  -5.899  0.00  0.00    -0.040 A 
ATOM     29  H   LIG d   1       4.185   0.009  -6.266  0.00  0.00     0.062 H 
ATOM     30  H   LIG d   1       5.043  -2.202  -6.922  0.00  0.00     0.064 H 
ENDBRANCH  11  20
BRANCH   1  31
ATOM     31  O   LIG d   1       5.904  -9.888  -4.768  0.00  0.00    -0.372 OA
BRANCH  31  32
ATOM     32  C   LIG d   1       4.623 -10.377  -5.171  0.00  0.00     0.066 C 
ATOM     33  H   LIG d   1       4.026  -9.552  -5.561  0.00  0.00     0.060 H 
ATOM     34  H   LIG d   1       4.750 -11.132  -5.946  0.00  0.00     0.060 H 
BRANCH  32  35
ATOM     35  C   LIG d   1       3.922 -10.987  -3.984  0.00  0.00    -0.066 C 
ATOM     36  C   LIG d   1       3.259 -10.223  -3.151  0.00  0.00    -0.101 C 
ATOM     37  H   LIG d   1       2.756 -10.660  -2.301  0.00  0.00     0.053 H 
ATOM     38  H   LIG d   1       3.216  -9.156  -3.314  0.00  0.00     0.053 H 
ATOM     39  H   LIG d   1       3.966 -12.053  -3.821  0.00  0.00     0.059 H 
ENDBRANCH  32  35
ENDBRANCH  31  32
ENDBRANCH   1  31
TORSDOF 4
ENDMDL
MODEL 5
REMARK VINA RESULT:      -5.8      2.000      2.818
REMARK  4 active torsions:
REMARK  status: ('A' for Active; 'I' for Inactive)
REMARK    1  A    between atoms: C_2  and  C_3 
REMARK    2  A    between atoms: C_3  and  O_4 
REMARK    3  A    between atoms: O_4  and  C_5 
REMARK    4  A    between atoms: N_15  and  C_18 
ROOT
ATOM      1  C   LIG d   1       3.872   0.071 -10.651  0.00  0.00     0.063 C 
ATOM      2  H   LIG d   1       2.949  -0.400 -10.992  0.00  0.00     0.060 H 
ATOM      3  C   LIG d   1       3.548   1.439 -10.049  0.00  0.00    -0.011 C 
ATOM      4  C   LIG d   1       2.552   1.273  -8.892  0.00  0.00     0.019 C 
ATOM      5  N   LIG d   1       3.088   0.246  -7.996  0.00  0.00    -0.273 N 
ATOM      6  C   LIG d   1       3.553  -1.078  -8.466  0.00  0.00     0.107 C 
ATOM      7  H   LIG d   1       2.722  -1.713  -8.770  0.00  0.00     0.060 H 
ATOM      8  C   LIG d   1       4.543  -0.828  -9.608  0.00  0.00     0.001 C 
ATOM      9  C   LIG d   1       4.264  -1.637  -7.252  0.00  0.00     0.248 C 
ATOM     10  O   LIG d   1       4.921  -2.653  -7.193  0.00  0.00    -0.273 OA
ATOM     11  N   LIG d   1       4.014  -0.765  -6.252  0.00  0.00    -0.193 N 
ATOM     12  C   LIG d   1       3.292   0.283  -6.677  0.00  0.00     0.316 C 
ATOM     13  O   LIG d   1       2.875   1.162  -5.949  0.00  0.00    -0.252 OA
ATOM     14  H   LIG d   1       4.465   1.897  -9.676  0.00  0.00     0.030 H 
ATOM     15  H   LIG d   1       3.110   2.078 -10.816  0.00  0.00     0.030 H 
ATOM     16  H   LIG d   1       2.447   2.215  -8.355  0.00  0.00     0.047 H 
ATOM     17  H   LIG d   1       1.582   0.958  -9.281  0.00  0.00     0.047 H 
ATOM     18  H   LIG d   1       4.818  -1.778 -10.067  0.00  0.00     0.031 H 
ATOM     19  H   LIG d   1       5.434  -0.335  -9.219  0.00  0.00     0.031 H 
ENDROOT
BRANCH  11  20
ATOM     20  C   LIG d   1       4.453  -0.936  -4.932  0.00  0.00     0.048 A 
ATOM     21  C   LIG d   1       3.739  -1.746  -4.060  0.00  0.00    -0.004 A 
ATOM     22  C   LIG d   1       4.175  -1.912  -2.758  0.00  0.00     0.125 A 
ATOM     23  H   LIG d   1       2.844  -2.247  -4.399  0.00  0.00     0.067 H 
ATOM     24  C   LIG d   1       5.322  -1.270  -2.325  0.00  0.00    -0.026 A 
ATOM     25  F   LIG d   1       3.481  -2.700  -1.909  0.00  0.00    -0.205 F 
ATOM     26  C   LIG d   1       6.035  -0.463  -3.192  0.00  0.00    -0.057 A 
ATOM     27  H   LIG d   1       5.662  -1.400  -1.308  0.00  0.00     0.065 H 
ATOM     28  C   LIG d   1       5.607  -0.298  -4.494  0.00  0.00    -0.040 A 
ATOM     29  H   LIG d   1       6.931   0.036  -2.852  0.00  0.00     0.062 H 
ATOM     30  H   LIG d   1       6.167   0.329  -5.172  0.00  0.00     0.064 H 
ENDBRANCH  11  20
BRANCH   1  31
ATOM     31  O   LIG d   1       4.753   0.242 -11.763  0.00  0.00    -0.372 OA
BRANCH  31  32
ATOM     32  C   LIG d   1       4.542  -0.696 -12.821  0.00  0.00     0.066 C 
ATOM     33  H   LIG d   1       4.762  -0.220 -13.777  0.00  0.00     0.060 H 
ATOM     34  H   LIG d   1       5.200  -1.554 -12.682  0.00  0.00     0.060 H 
BRANCH  32  35
ATOM     35  C   LIG d   1       3.108  -1.156 -12.807  0.00  0.00    -0.066 C 
ATOM     36  C   LIG d   1       2.633  -1.853 -13.810  0.00  0.00    -0.101 C 
ATOM     37  H   LIG d   1       1.605  -2.183 -13.799  0.00  0.00     0.053 H 
ATOM     38  H   LIG d   1       3.270  -2.098 -14.646  0.00  0.00     0.053 H 
ATOM     39  H   LIG d   1       2.470  -0.910 -11.970  0.00  0.00     0.059 H 
ENDBRANCH  32  35
ENDBRANCH  31  32
ENDBRANCH   1  31
TORSDOF 4
ENDMDL
MODEL 6
REMARK VINA RESULT:      -5.7      4.883      6.593
REMARK  4 active torsions:
REMARK  status: ('A' for Active; 'I' for Inactive)
REMARK    1  A    between atoms: C_2  and  C_3 
REMARK    2  A    between atoms: C_3  and  O_4 
REMARK    3  A    between atoms: O_4  and  C_5 
REMARK    4  A    between atoms: N_15  and  C_18 
ROOT
ATOM      1  C   LIG d   1       7.770  -7.002  -5.424  0.00  0.00     0.063 C 
ATOM      2  H   LIG d   1       8.166  -6.902  -6.435  0.00  0.00     0.060 H 
ATOM      3  C   LIG d   1       8.677  -6.248  -4.450  0.00  0.00    -0.011 C 
ATOM      4  C   LIG d   1       8.766  -4.772  -4.864  0.00  0.00     0.019 C 
ATOM      5  N   LIG d   1       7.397  -4.281  -5.037  0.00  0.00    -0.273 N 
ATOM      6  C   LIG d   1       6.382  -4.982  -5.854  0.00  0.00     0.107 C 
ATOM      7  H   LIG d   1       6.595  -4.900  -6.920  0.00  0.00     0.060 H 
ATOM      8  C   LIG d   1       6.347  -6.438  -5.379  0.00  0.00     0.001 C 
ATOM      9  C   LIG d   1       5.100  -4.267  -5.487  0.00  0.00     0.248 C 
ATOM     10  O   LIG d   1       3.973  -4.572  -5.813  0.00  0.00    -0.273 OA
ATOM     11  N   LIG d   1       5.475  -3.220  -4.721  0.00  0.00    -0.193 N 
ATOM     12  C   LIG d   1       6.800  -3.207  -4.516  0.00  0.00     0.316 C 
ATOM     13  O   LIG d   1       7.388  -2.323  -3.924  0.00  0.00    -0.252 OA
ATOM     14  H   LIG d   1       8.264  -6.318  -3.443  0.00  0.00     0.030 H 
ATOM     15  H   LIG d   1       9.673  -6.690  -4.464  0.00  0.00     0.030 H 
ATOM     16  H   LIG d   1       9.269  -4.198  -4.086  0.00  0.00     0.047 H 
ATOM     17  H   LIG d   1       9.315  -4.683  -5.802  0.00  0.00     0.047 H 
ATOM     18  H   LIG d   1       5.702  -7.021  -6.036  0.00  0.00     0.031 H 
ATOM     19  H   LIG d   1       5.969  -6.480  -4.357  0.00  0.00     0.031 H 
ENDROOT
BRANCH  11  20
ATOM     20  C   LIG d   1       4.588  -2.264  -4.206  0.00  0.00     0.048 A 
ATOM     21  C   LIG d   1       4.178  -1.199  -4.996  0.00  0.00    -0.004 A 
ATOM     22  C   LIG d   1       3.303  -0.257  -4.485  0.00  0.00     0.125 A 
ATOM     23  H   LIG d   1       4.541  -1.106  -6.009  0.00  0.00     0.067 H 
ATOM     24  C   LIG d   1       2.837  -0.378  -3.187  0.00  0.00    -0.026 A 
ATOM     25  F   LIG d   1       2.904   0.780  -5.252  0.00  0.00    -0.205 F 
ATOM     26  C   LIG d   1       3.244  -1.438  -2.399  0.00  0.00    -0.057 A 
ATOM     27  H   LIG d   1       2.154   0.358  -2.789  0.00  0.00     0.065 H 
ATOM     28  C   LIG d   1       4.113  -2.384  -2.907  0.00  0.00    -0.040 A 
ATOM     29  H   LIG d   1       2.878  -1.531  -1.387  0.00  0.00     0.062 H 
ATOM     30  H   LIG d   1       4.427  -3.215  -2.292  0.00  0.00     0.064 H 
ENDBRANCH  11  20
BRANCH   1  31
ATOM     31  O   LIG d   1       7.741  -8.385  -5.065  0.00  0.00    -0.372 OA
BRANCH  31  32
ATOM     32  C   LIG d   1       8.185  -8.650  -3.733  0.00  0.00     0.066 C 
ATOM     33  H   LIG d   1       9.157  -9.143  -3.766  0.00  0.00     0.060 H 
ATOM     34  H   LIG d   1       8.272  -7.712  -3.186  0.00  0.00     0.060 H 
BRANCH  32  35
ATOM     35  C   LIG d   1       7.191  -9.546  -3.040  0.00  0.00    -0.066 C 
ATOM     36  C   LIG d   1       6.058  -9.843  -3.627  0.00  0.00    -0.101 C 
ATOM     37  H   LIG d   1       5.345 -10.486  -3.131  0.00  0.00     0.053 H 
ATOM     38  H   LIG d   1       5.836  -9.446  -4.606  0.00  0.00     0.053 H 
ATOM     39  H   LIG d   1       7.413  -9.943  -2.061  0.00  0.00     0.059 H 
ENDBRANCH  32  35
ENDBRANCH  31  32
ENDBRANCH   1  31
TORSDOF 4
ENDMDL
MODEL 7
REMARK VINA RESULT:      -5.6      4.343      6.033
REMARK  4 active torsions:
REMARK  status: ('A' for Active; 'I' for Inactive)
REMARK    1  A    between atoms: C_2  and  C_3 
REMARK    2  A    between atoms: C_3  and  O_4 
REMARK    3  A    between atoms: O_4  and  C_5 
REMARK    4  A    between atoms: N_15  and  C_18 
ROOT
ATOM      1  C   LIG d   1       9.873   1.609  -6.839  0.00  0.00     0.063 C 
ATOM      2  H   LIG d   1      10.783   1.379  -6.285  0.00  0.00     0.060 H 
ATOM      3  C   LIG d   1       9.480   0.400  -7.689  0.00  0.00    -0.011 C 
ATOM      4  C   LIG d   1       9.283  -0.826  -6.786  0.00  0.00     0.019 C 
ATOM      5  N   LIG d   1       8.376  -0.432  -5.705  0.00  0.00    -0.273 N 
ATOM      6  C   LIG d   1       8.573   0.783  -4.884  0.00  0.00     0.107 C 
ATOM      7  H   LIG d   1       9.415   0.676  -4.201  0.00  0.00     0.060 H 
ATOM      8  C   LIG d   1       8.755   1.956  -5.852  0.00  0.00     0.001 C 
ATOM      9  C   LIG d   1       7.262   0.902  -4.136  0.00  0.00     0.248 C 
ATOM     10  O   LIG d   1       6.903   1.819  -3.431  0.00  0.00    -0.273 OA
ATOM     11  N   LIG d   1       6.578  -0.227  -4.421  0.00  0.00    -0.193 N 
ATOM     12  C   LIG d   1       7.251  -1.010  -5.278  0.00  0.00     0.316 C 
ATOM     13  O   LIG d   1       6.879  -2.114  -5.626  0.00  0.00    -0.252 OA
ATOM     14  H   LIG d   1       8.551   0.616  -8.218  0.00  0.00     0.030 H 
ATOM     15  H   LIG d   1      10.269   0.194  -8.413  0.00  0.00     0.030 H 
ATOM     16  H   LIG d   1       8.842  -1.642  -7.359  0.00  0.00     0.047 H 
ATOM     17  H   LIG d   1      10.241  -1.139  -6.372  0.00  0.00     0.047 H 
ATOM     18  H   LIG d   1       9.026   2.852  -5.292  0.00  0.00     0.031 H 
ATOM     19  H   LIG d   1       7.826   2.128  -6.397  0.00  0.00     0.031 H 
ENDROOT
BRANCH  11  20
ATOM     20  C   LIG d   1       5.322  -0.541  -3.886  0.00  0.00     0.048 A 
ATOM     21  C   LIG d   1       4.167  -0.075  -4.500  0.00  0.00    -0.004 A 
ATOM     22  C   LIG d   1       2.929  -0.387  -3.969  0.00  0.00     0.125 A 
ATOM     23  H   LIG d   1       4.237   0.531  -5.391  0.00  0.00     0.067 H 
ATOM     24  C   LIG d   1       2.841  -1.164  -2.827  0.00  0.00    -0.026 A 
ATOM     25  F   LIG d   1       1.805   0.067  -4.565  0.00  0.00    -0.205 F 
ATOM     26  C   LIG d   1       3.990  -1.630  -2.214  0.00  0.00    -0.057 A 
ATOM     27  H   LIG d   1       1.873  -1.408  -2.413  0.00  0.00     0.065 H 
ATOM     28  C   LIG d   1       5.229  -1.326  -2.744  0.00  0.00    -0.040 A 
ATOM     29  H   LIG d   1       3.919  -2.238  -1.324  0.00  0.00     0.062 H 
ATOM     30  H   LIG d   1       6.125  -1.694  -2.267  0.00  0.00     0.064 H 
ENDBRANCH  11  20
BRANCH   1  31
ATOM     31  O   LIG d   1      10.112   2.729  -7.694  0.00  0.00    -0.372 OA
BRANCH  31  32
ATOM     32  C   LIG d   1       9.831   3.993  -7.089  0.00  0.00     0.066 C 
ATOM     33  H   LIG d   1       8.978   3.891  -6.417  0.00  0.00     0.060 H 
ATOM     34  H   LIG d   1      10.701   4.326  -6.524  0.00  0.00     0.060 H 
BRANCH  32  35
ATOM     35  C   LIG d   1       9.510   5.002  -8.160  0.00  0.00    -0.066 C 
ATOM     36  C   LIG d   1       8.850   4.634  -9.231  0.00  0.00    -0.101 C 
ATOM     37  H   LIG d   1       8.619   5.357  -9.998  0.00  0.00     0.053 H 
ATOM     38  H   LIG d   1       8.537   3.607  -9.345  0.00  0.00     0.053 H 
ATOM     39  H   LIG d   1       9.824   6.029  -8.046  0.00  0.00     0.059 H 
ENDBRANCH  32  35
ENDBRANCH  31  32
ENDBRANCH   1  31
TORSDOF 4
ENDMDL
MODEL 8
REMARK VINA RESULT:      -5.5      4.316      6.166
REMARK  4 active torsions:
REMARK  status: ('A' for Active; 'I' for Inactive)
REMARK    1  A    between atoms: C_2  and  C_3 
REMARK    2  A    between atoms: C_3  and  O_4 
REMARK    3  A    between atoms: O_4  and  C_5 
REMARK    4  A    between atoms: N_15  and  C_18 
ROOT
ATOM      1  C   LIG d   1       9.420   3.043  -7.641  0.00  0.00     0.063 C 
ATOM      2  H   LIG d   1      10.364   2.508  -7.750  0.00  0.00     0.060 H 
ATOM      3  C   LIG d   1       8.360   2.384  -8.523  0.00  0.00    -0.011 C 
ATOM      4  C   LIG d   1       8.206   0.907  -8.131  0.00  0.00     0.019 C 
ATOM      5  N   LIG d   1       8.010   0.857  -6.680  0.00  0.00    -0.273 N 
ATOM      6  C   LIG d   1       8.892   1.553  -5.718  0.00  0.00     0.107 C 
ATOM      7  H   LIG d   1       9.870   1.076  -5.649  0.00  0.00     0.060 H 
ATOM      8  C   LIG d   1       8.990   3.013  -6.171  0.00  0.00     0.001 C 
ATOM      9  C   LIG d   1       8.127   1.445  -4.417  0.00  0.00     0.248 C 
ATOM     10  O   LIG d   1       8.397   1.978  -3.363  0.00  0.00    -0.273 OA
ATOM     11  N   LIG d   1       7.083   0.630  -4.677  0.00  0.00    -0.193 N 
ATOM     12  C   LIG d   1       7.057   0.254  -5.965  0.00  0.00     0.316 C 
ATOM     13  O   LIG d   1       6.259  -0.538  -6.427  0.00  0.00    -0.252 OA
ATOM     14  H   LIG d   1       7.407   2.897  -8.388  0.00  0.00     0.030 H 
ATOM     15  H   LIG d   1       8.663   2.452  -9.568  0.00  0.00     0.030 H 
ATOM     16  H   LIG d   1       7.341   0.477  -8.636  0.00  0.00     0.047 H 
ATOM     17  H   LIG d   1       9.106   0.355  -8.404  0.00  0.00     0.047 H 
ATOM     18  H   LIG d   1       9.728   3.536  -5.563  0.00  0.00     0.031 H 
ATOM     19  H   LIG d   1       8.017   3.495  -6.065  0.00  0.00     0.031 H 
ENDROOT
BRANCH  11  20
ATOM     20  C   LIG d   1       6.143   0.226  -3.720  0.00  0.00     0.048 A 
ATOM     21  C   LIG d   1       5.206   1.130  -3.239  0.00  0.00    -0.004 A 
ATOM     22  C   LIG d   1       4.279   0.728  -2.294  0.00  0.00     0.125 A 
ATOM     23  H   LIG d   1       5.200   2.147  -3.604  0.00  0.00     0.067 H 
ATOM     24  C   LIG d   1       4.287  -0.576  -1.828  0.00  0.00    -0.026 A 
ATOM     25  F   LIG d   1       3.368   1.607  -1.825  0.00  0.00    -0.205 F 
ATOM     26  C   LIG d   1       5.219  -1.478  -2.306  0.00  0.00    -0.057 A 
ATOM     27  H   LIG d   1       3.563  -0.890  -1.090  0.00  0.00     0.065 H 
ATOM     28  C   LIG d   1       6.143  -1.083  -3.254  0.00  0.00    -0.040 A 
ATOM     29  H   LIG d   1       5.222  -2.495  -1.942  0.00  0.00     0.062 H 
ATOM     30  H   LIG d   1       6.868  -1.789  -3.630  0.00  0.00     0.064 H 
ENDBRANCH  11  20
BRANCH   1  31
ATOM     31  O   LIG d   1       9.599   4.400  -8.052  0.00  0.00    -0.372 OA
BRANCH  31  32
ATOM     32  C   LIG d   1       9.290   4.636  -9.427  0.00  0.00     0.066 C 
ATOM     33  H   LIG d   1      10.208   4.602 -10.016  0.00  0.00     0.060 H 
ATOM     34  H   LIG d   1       8.602   3.869  -9.782  0.00  0.00     0.060 H 
BRANCH  32  35
ATOM     35  C   LIG d   1       8.650   5.992  -9.573  0.00  0.00    -0.066 C 
ATOM     36  C   LIG d   1       9.127   7.017  -8.911  0.00  0.00    -0.101 C 
ATOM     37  H   LIG d   1       8.669   7.989  -9.016  0.00  0.00     0.053 H 
ATOM     38  H   LIG d   1       9.980   6.890  -8.261  0.00  0.00     0.053 H 
ATOM     39  H   LIG d   1       7.797   6.120 -10.223  0.00  0.00     0.059 H 
ENDBRANCH  32  35
ENDBRANCH  31  32
ENDBRANCH   1  31
TORSDOF 4
ENDMDL
MODEL 9
REMARK VINA RESULT:      -5.4      4.397      6.845
REMARK  4 active torsions:
REMARK  status: ('A' for Active; 'I' for Inactive)
REMARK    1  A    between atoms: C_2  and  C_3 
REMARK    2  A    between atoms: C_3  and  O_4 
REMARK    3  A    between atoms: O_4  and  C_5 
REMARK    4  A    between atoms: N_15  and  C_18 
ROOT
ATOM      1  C   LIG d   1      10.684  -1.694  -6.182  0.00  0.00     0.063 C 
ATOM      2  H   LIG d   1      10.530  -2.543  -6.849  0.00  0.00     0.060 H 
ATOM      3  C   LIG d   1      10.352  -0.401  -6.927  0.00  0.00    -0.011 C 
ATOM      4  C   LIG d   1       8.902  -0.451  -7.431  0.00  0.00     0.019 C 
ATOM      5  N   LIG d   1       8.055  -0.817  -6.294  0.00  0.00    -0.273 N 
ATOM      6  C   LIG d   1       8.332  -1.974  -5.415  0.00  0.00     0.107 C 
ATOM      7  H   LIG d   1       8.141  -2.920  -5.922  0.00  0.00     0.060 H 
ATOM      8  C   LIG d   1       9.787  -1.849  -4.950  0.00  0.00     0.001 C 
ATOM      9  C   LIG d   1       7.379  -1.759  -4.260  0.00  0.00     0.248 C 
ATOM     10  O   LIG d   1       7.328  -2.389  -3.226  0.00  0.00    -0.273 OA
ATOM     11  N   LIG d   1       6.599  -0.719  -4.623  0.00  0.00    -0.193 N 
ATOM     12  C   LIG d   1       6.959  -0.222  -5.816  0.00  0.00     0.316 C 
ATOM     13  O   LIG d   1       6.362   0.666  -6.392  0.00  0.00    -0.252 OA
ATOM     14  H   LIG d   1      10.472   0.447  -6.251  0.00  0.00     0.030 H 
ATOM     15  H   LIG d   1      11.027  -0.286  -7.775  0.00  0.00     0.030 H 
ATOM     16  H   LIG d   1       8.608   0.527  -7.813  0.00  0.00     0.047 H 
ATOM     17  H   LIG d   1       8.810  -1.199  -8.220  0.00  0.00     0.047 H 
ATOM     18  H   LIG d   1      10.072  -2.746  -4.400  0.00  0.00     0.031 H 
ATOM     19  H   LIG d   1       9.891  -0.974  -4.309  0.00  0.00     0.031 H 
ENDROOT
BRANCH  11  20
ATOM     20  C   LIG d   1       5.541  -0.221  -3.850  0.00  0.00     0.048 A 
ATOM     21  C   LIG d   1       4.276  -0.783  -3.958  0.00  0.00    -0.004 A 
ATOM     22  C   LIG d   1       3.234  -0.290  -3.193  0.00  0.00     0.125 A 
ATOM     23  H   LIG d   1       4.106  -1.605  -4.637  0.00  0.00     0.067 H 
ATOM     24  C   LIG d   1       3.453   0.764  -2.322  0.00  0.00    -0.026 A 
ATOM     25  F   LIG d   1       2.003  -0.835  -3.298  0.00  0.00    -0.205 F 
ATOM     26  C   LIG d   1       4.712   1.324  -2.213  0.00  0.00    -0.057 A 
ATOM     27  H   LIG d   1       2.639   1.148  -1.725  0.00  0.00     0.065 H 
ATOM     28  C   LIG d   1       5.757   0.831  -2.970  0.00  0.00    -0.040 A 
ATOM     29  H   LIG d   1       4.881   2.145  -1.531  0.00  0.00     0.062 H 
ATOM     30  H   LIG d   1       6.741   1.267  -2.881  0.00  0.00     0.064 H 
ENDBRANCH  11  20
BRANCH   1  31
ATOM     31  O   LIG d   1      12.051  -1.662  -5.768  0.00  0.00    -0.372 OA
BRANCH  31  32
ATOM     32  C   LIG d   1      12.231  -1.683  -4.350  0.00  0.00     0.066 C 
ATOM     33  H   LIG d   1      11.263  -1.567  -3.861  0.00  0.00     0.060 H 
ATOM     34  H   LIG d   1      12.676  -2.633  -4.055  0.00  0.00     0.060 H 
BRANCH  32  35
ATOM     35  C   LIG d   1      13.139  -0.553  -3.942  0.00  0.00    -0.066 C 
ATOM     36  C   LIG d   1      12.662   0.661  -3.824  0.00  0.00    -0.101 C 
ATOM     37  H   LIG d   1      13.313   1.471  -3.530  0.00  0.00     0.053 H 
ATOM     38  H   LIG d   1      11.617   0.852  -4.019  0.00  0.00     0.053 H 
ATOM     39  H   LIG d   1      14.184  -0.744  -3.747  0.00  0.00     0.059 H 
ENDBRANCH  32  35
ENDBRANCH  31  32
ENDBRANCH   1  31
TORSDOF 4
ENDMDL
