MODEL 1
REMARK VINA RESULT:      -5.8      0.000      0.000
REMARK  1 active torsions:
REMARK  status: ('A' for Active; 'I' for Inactive)
REMARK    1  A    between atoms: C_7  and  O_13 
ROOT
ATOM      1  C   LIG d   1       2.890  -0.025  -2.555  0.00  0.00    -0.061 A 
ATOM      2  C   LIG d   1       3.812   0.991  -2.370  0.00  0.00    -0.061 A 
ATOM      3  C   LIG d   1       5.135   0.787  -2.701  0.00  0.00    -0.051 A 
ATOM      4  C   LIG d   1       5.539  -0.446  -3.221  0.00  0.00     0.023 A 
ATOM      5  C   LIG d   1       4.608  -1.470  -3.401  0.00  0.00    -0.009 A 
ATOM      6  C   LIG d   1       3.285  -1.247  -3.066  0.00  0.00    -0.056 A 
ATOM      7  C   LIG d   1       5.008  -2.811  -3.952  0.00  0.00     0.081 C 
ATOM      8  H   LIG d   1       5.154  -3.507  -3.125  0.00  0.00     0.064 H 
ATOM      9  C   LIG d   1       6.299  -2.716  -4.759  0.00  0.00    -0.016 C 
ATOM     10  C   LIG d   1       7.393  -2.075  -3.894  0.00  0.00     0.013 C 
ATOM     11  C   LIG d   1       6.953  -0.659  -3.583  0.00  0.00     0.164 C 
ATOM     12  O   LIG d   1       7.736   0.265  -3.631  0.00  0.00    -0.292 OA
ATOM     13  H   LIG d   1       1.853   0.139  -2.296  0.00  0.00     0.062 H 
ATOM     14  H   LIG d   1       3.496   1.942  -1.968  0.00  0.00     0.062 H 
ATOM     15  H   LIG d   1       5.857   1.578  -2.558  0.00  0.00     0.062 H 
ATOM     16  H   LIG d   1       2.556  -2.031  -3.205  0.00  0.00     0.062 H 
ATOM     17  H   LIG d   1       6.614  -3.714  -5.062  0.00  0.00     0.030 H 
ATOM     18  H   LIG d   1       6.131  -2.103  -5.644  0.00  0.00     0.030 H 
ATOM     19  H   LIG d   1       8.258  -2.074  -4.396  0.00  0.00     0.035 H 
ATOM     20  H   LIG d   1       7.513  -2.638  -2.968  0.00  0.00     0.035 H 
ENDROOT
BRANCH   7  21
ATOM     21  O   LIG d   1       3.964  -3.301  -4.796  0.00  0.00    -0.387 OA
ATOM     22  H   LIG d   1       3.804  -2.758  -5.580  0.00  0.00     0.210 HD
ENDBRANCH   7  21
TORSDOF 1
ENDMDL
MODEL 2
REMARK VINA RESULT:      -5.6      1.531      4.033
REMARK  1 active torsions:
REMARK  status: ('A' for Active; 'I' for Inactive)
REMARK    1  A    between atoms: C_7  and  O_13 
ROOT
ATOM      1  C   LIG d   1       7.650   0.570  -4.011  0.00  0.00    -0.061 A 
ATOM      2  C   LIG d   1       7.791  -0.762  -4.360  0.00  0.00    -0.061 A 
ATOM      3  C   LIG d   1       6.752  -1.642  -4.145  0.00  0.00    -0.051 A 
ATOM      4  C   LIG d   1       5.560  -1.185  -3.575  0.00  0.00     0.023 A 
ATOM      5  C   LIG d   1       5.423   0.158  -3.220  0.00  0.00    -0.009 A 
ATOM      6  C   LIG d   1       6.475   1.027  -3.445  0.00  0.00    -0.056 A 
ATOM      7  C   LIG d   1       4.159   0.684  -2.598  0.00  0.00     0.081 C 
ATOM      8  H   LIG d   1       4.285   0.730  -1.515  0.00  0.00     0.064 H 
ATOM      9  C   LIG d   1       2.967  -0.211  -2.924  0.00  0.00    -0.016 C 
ATOM     10  C   LIG d   1       3.284  -1.653  -2.505  0.00  0.00     0.013 C 
ATOM     11  C   LIG d   1       4.446  -2.126  -3.353  0.00  0.00     0.164 C 
ATOM     12  O   LIG d   1       4.459  -3.239  -3.834  0.00  0.00    -0.292 OA
ATOM     13  H   LIG d   1       8.466   1.258  -4.183  0.00  0.00     0.062 H 
ATOM     14  H   LIG d   1       8.713  -1.112  -4.800  0.00  0.00     0.062 H 
ATOM     15  H   LIG d   1       6.858  -2.683  -4.416  0.00  0.00     0.062 H 
ATOM     16  H   LIG d   1       6.378   2.069  -3.177  0.00  0.00     0.062 H 
ATOM     17  H   LIG d   1       2.088   0.140  -2.384  0.00  0.00     0.030 H 
ATOM     18  H   LIG d   1       2.771  -0.179  -3.996  0.00  0.00     0.030 H 
ATOM     19  H   LIG d   1       2.479  -2.228  -2.655  0.00  0.00     0.035 H 
ATOM     20  H   LIG d   1       3.558  -1.682  -1.450  0.00  0.00     0.035 H 
ENDROOT
BRANCH   7  21
ATOM     21  O   LIG d   1       3.906   2.000  -3.094  0.00  0.00    -0.387 OA
ATOM     22  H   LIG d   1       3.019   2.120  -3.460  0.00  0.00     0.210 HD
ENDBRANCH   7  21
TORSDOF 1
ENDMDL
MODEL 3
REMARK VINA RESULT:      -5.6      0.598      2.931
REMARK  1 active torsions:
REMARK  status: ('A' for Active; 'I' for Inactive)
REMARK    1  A    between atoms: C_7  and  O_13 
ROOT
ATOM      1  C   LIG d   1       4.369   1.387  -2.434  0.00  0.00    -0.061 A 
ATOM      2  C   LIG d   1       3.358   0.453  -2.285  0.00  0.00    -0.061 A 
ATOM      3  C   LIG d   1       3.526  -0.825  -2.774  0.00  0.00    -0.051 A 
ATOM      4  C   LIG d   1       4.717  -1.173  -3.417  0.00  0.00     0.023 A 
ATOM      5  C   LIG d   1       5.733  -0.227  -3.569  0.00  0.00    -0.009 A 
ATOM      6  C   LIG d   1       5.548   1.049  -3.071  0.00  0.00    -0.056 A 
ATOM      7  C   LIG d   1       7.025  -0.564  -4.263  0.00  0.00     0.081 C 
ATOM      8  H   LIG d   1       6.974  -0.223  -5.297  0.00  0.00     0.064 H 
ATOM      9  C   LIG d   1       7.289  -2.066  -4.243  0.00  0.00    -0.016 C 
ATOM     10  C   LIG d   1       6.082  -2.802  -4.841  0.00  0.00     0.013 C 
ATOM     11  C   LIG d   1       4.899  -2.544  -3.931  0.00  0.00     0.164 C 
ATOM     12  O   LIG d   1       4.129  -3.432  -3.636  0.00  0.00    -0.292 OA
ATOM     13  H   LIG d   1       4.236   2.388  -2.048  0.00  0.00     0.062 H 
ATOM     14  H   LIG d   1       2.439   0.725  -1.787  0.00  0.00     0.062 H 
ATOM     15  H   LIG d   1       2.739  -1.556  -2.659  0.00  0.00     0.062 H 
ATOM     16  H   LIG d   1       6.329   1.787  -3.181  0.00  0.00     0.062 H 
ATOM     17  H   LIG d   1       8.178  -2.288  -4.834  0.00  0.00     0.030 H 
ATOM     18  H   LIG d   1       7.443  -2.395  -3.216  0.00  0.00     0.030 H 
ATOM     19  H   LIG d   1       6.281  -3.782  -4.893  0.00  0.00     0.035 H 
ATOM     20  H   LIG d   1       5.872  -2.422  -5.840  0.00  0.00     0.035 H 
ENDROOT
BRANCH   7  21
ATOM     21  O   LIG d   1       8.099   0.109  -3.602  0.00  0.00    -0.387 OA
ATOM     22  H   LIG d   1       7.831   0.910  -3.130  0.00  0.00     0.210 HD
ENDBRANCH   7  21
TORSDOF 1
ENDMDL
MODEL 4
REMARK VINA RESULT:      -5.4      2.179      2.592
REMARK  1 active torsions:
REMARK  status: ('A' for Active; 'I' for Inactive)
REMARK    1  A    between atoms: C_7  and  O_13 
ROOT
ATOM      1  C   LIG d   1       3.591   1.389  -2.341  0.00  0.00    -0.061 A 
ATOM      2  C   LIG d   1       4.528   0.625  -1.668  0.00  0.00    -0.061 A 
ATOM      3  C   LIG d   1       5.115  -0.453  -2.295  0.00  0.00    -0.051 A 
ATOM      4  C   LIG d   1       4.761  -0.769  -3.610  0.00  0.00     0.023 A 
ATOM      5  C   LIG d   1       3.812   0.001  -4.285  0.00  0.00    -0.009 A 
ATOM      6  C   LIG d   1       3.235   1.080  -3.640  0.00  0.00    -0.056 A 
ATOM      7  C   LIG d   1       3.401  -0.314  -5.697  0.00  0.00     0.081 C 
ATOM      8  H   LIG d   1       2.473  -0.886  -5.680  0.00  0.00     0.064 H 
ATOM      9  C   LIG d   1       4.474  -1.123  -6.419  0.00  0.00    -0.016 C 
ATOM     10  C   LIG d   1       4.802  -2.378  -5.599  0.00  0.00     0.013 C 
ATOM     11  C   LIG d   1       5.397  -1.917  -4.284  0.00  0.00     0.164 C 
ATOM     12  O   LIG d   1       6.361  -2.472  -3.803  0.00  0.00    -0.292 OA
ATOM     13  H   LIG d   1       3.134   2.235  -1.847  0.00  0.00     0.062 H 
ATOM     14  H   LIG d   1       4.799   0.872  -0.652  0.00  0.00     0.062 H 
ATOM     15  H   LIG d   1       5.846  -1.052  -1.772  0.00  0.00     0.062 H 
ATOM     16  H   LIG d   1       2.502   1.684  -4.154  0.00  0.00     0.062 H 
ATOM     17  H   LIG d   1       4.109  -1.417  -7.403  0.00  0.00     0.030 H 
ATOM     18  H   LIG d   1       5.373  -0.518  -6.530  0.00  0.00     0.030 H 
ATOM     19  H   LIG d   1       5.455  -2.945  -6.103  0.00  0.00     0.035 H 
ATOM     20  H   LIG d   1       3.892  -2.950  -5.415  0.00  0.00     0.035 H 
ENDROOT
BRANCH   7  21
ATOM     21  O   LIG d   1       3.182   0.909  -6.404  0.00  0.00    -0.387 OA
ATOM     22  H   LIG d   1       2.510   1.479  -6.006  0.00  0.00     0.210 HD
ENDBRANCH   7  21
TORSDOF 1
ENDMDL
MODEL 5
REMARK VINA RESULT:      -5.3      1.602      3.329
REMARK  1 active torsions:
REMARK  status: ('A' for Active; 'I' for Inactive)
REMARK    1  A    between atoms: C_7  and  O_13 
ROOT
ATOM      1  C   LIG d   1       7.416  -0.485  -5.225  0.00  0.00    -0.061 A 
ATOM      2  C   LIG d   1       7.742   0.487  -4.295  0.00  0.00    -0.061 A 
ATOM      3  C   LIG d   1       6.819   0.862  -3.342  0.00  0.00    -0.051 A 
ATOM      4  C   LIG d   1       5.558   0.259  -3.319  0.00  0.00     0.023 A 
ATOM      5  C   LIG d   1       5.231  -0.717  -4.262  0.00  0.00    -0.009 A 
ATOM      6  C   LIG d   1       6.170  -1.083  -5.209  0.00  0.00    -0.056 A 
ATOM      7  C   LIG d   1       3.882  -1.382  -4.272  0.00  0.00     0.081 C 
ATOM      8  H   LIG d   1       3.249  -0.893  -5.013  0.00  0.00     0.064 H 
ATOM      9  C   LIG d   1       3.211  -1.294  -2.905  0.00  0.00    -0.016 C 
ATOM     10  C   LIG d   1       3.149   0.174  -2.462  0.00  0.00     0.013 C 
ATOM     11  C   LIG d   1       4.575   0.656  -2.293  0.00  0.00     0.164 C 
ATOM     12  O   LIG d   1       4.897   1.342  -1.347  0.00  0.00    -0.292 OA
ATOM     13  H   LIG d   1       8.142  -0.779  -5.970  0.00  0.00     0.062 H 
ATOM     14  H   LIG d   1       8.717   0.950  -4.315  0.00  0.00     0.062 H 
ATOM     15  H   LIG d   1       7.070   1.620  -2.614  0.00  0.00     0.062 H 
ATOM     16  H   LIG d   1       5.928  -1.840  -5.941  0.00  0.00     0.062 H 
ATOM     17  H   LIG d   1       2.200  -1.697  -2.969  0.00  0.00     0.030 H 
ATOM     18  H   LIG d   1       3.786  -1.868  -2.179  0.00  0.00     0.030 H 
ATOM     19  H   LIG d   1       2.648   0.241  -1.598  0.00  0.00     0.035 H 
ATOM     20  H   LIG d   1       2.643   0.771  -3.221  0.00  0.00     0.035 H 
ENDROOT
BRANCH   7  21
ATOM     21  O   LIG d   1       4.041  -2.757  -4.628  0.00  0.00    -0.387 OA
ATOM     22  H   LIG d   1       3.976  -2.928  -5.578  0.00  0.00     0.210 HD
ENDBRANCH   7  21
TORSDOF 1
ENDMDL
MODEL 6
REMARK VINA RESULT:      -5.3      1.230      4.295
REMARK  1 active torsions:
REMARK  status: ('A' for Active; 'I' for Inactive)
REMARK    1  A    between atoms: C_7  and  O_13 
ROOT
ATOM      1  C   LIG d   1       6.933  -2.550  -4.674  0.00  0.00    -0.061 A 
ATOM      2  C   LIG d   1       5.739  -3.230  -4.512  0.00  0.00    -0.061 A 
ATOM      3  C   LIG d   1       4.681  -2.620  -3.873  0.00  0.00    -0.051 A 
ATOM      4  C   LIG d   1       4.819  -1.315  -3.391  0.00  0.00     0.023 A 
ATOM      5  C   LIG d   1       6.027  -0.633  -3.552  0.00  0.00    -0.009 A 
ATOM      6  C   LIG d   1       7.077  -1.260  -4.197  0.00  0.00    -0.056 A 
ATOM      7  C   LIG d   1       6.214   0.769  -3.039  0.00  0.00     0.081 C 
ATOM      8  H   LIG d   1       6.719   0.732  -2.073  0.00  0.00     0.064 H 
ATOM      9  C   LIG d   1       4.876   1.483  -2.878  0.00  0.00    -0.016 C 
ATOM     10  C   LIG d   1       3.954   0.641  -1.986  0.00  0.00     0.013 C 
ATOM     11  C   LIG d   1       3.683  -0.659  -2.716  0.00  0.00     0.164 C 
ATOM     12  O   LIG d   1       2.572  -1.143  -2.744  0.00  0.00    -0.292 OA
ATOM     13  H   LIG d   1       7.760  -3.031  -5.177  0.00  0.00     0.062 H 
ATOM     14  H   LIG d   1       5.636  -4.238  -4.886  0.00  0.00     0.062 H 
ATOM     15  H   LIG d   1       3.747  -3.148  -3.745  0.00  0.00     0.062 H 
ATOM     16  H   LIG d   1       8.014  -0.741  -4.329  0.00  0.00     0.062 H 
ATOM     17  H   LIG d   1       5.036   2.458  -2.417  0.00  0.00     0.030 H 
ATOM     18  H   LIG d   1       4.414   1.615  -3.856  0.00  0.00     0.030 H 
ATOM     19  H   LIG d   1       3.102   1.139  -1.823  0.00  0.00     0.035 H 
ATOM     20  H   LIG d   1       4.443   0.437  -1.034  0.00  0.00     0.035 H 
ENDROOT
BRANCH   7  21
ATOM     21  O   LIG d   1       7.026   1.499  -3.962  0.00  0.00    -0.387 OA
ATOM     22  H   LIG d   1       6.761   2.422  -4.077  0.00  0.00     0.210 HD
ENDBRANCH   7  21
TORSDOF 1
ENDMDL
MODEL 7
REMARK VINA RESULT:      -4.8      9.921     11.894
REMARK  1 active torsions:
REMARK  status: ('A' for Active; 'I' for Inactive)
REMARK    1  A    between atoms: C_7  and  O_13 
ROOT
ATOM      1  C   LIG d   1       9.867   6.234  -1.445  0.00  0.00    -0.061 A 
ATOM      2  C   LIG d   1      10.767   5.852  -0.466  0.00  0.00    -0.061 A 
ATOM      3  C   LIG d   1      11.279   6.792   0.403  0.00  0.00    -0.051 A 
ATOM      4  C   LIG d   1      10.887   8.129   0.290  0.00  0.00     0.023 A 
ATOM      5  C   LIG d   1       9.983   8.512  -0.702  0.00  0.00    -0.009 A 
ATOM      6  C   LIG d   1       9.477   7.555  -1.563  0.00  0.00    -0.056 A 
ATOM      7  C   LIG d   1       9.544   9.943  -0.858  0.00  0.00     0.081 C 
ATOM      8  H   LIG d   1      10.133  10.414  -1.646  0.00  0.00     0.064 H 
ATOM      9  C   LIG d   1       9.728  10.723   0.440  0.00  0.00    -0.016 C 
ATOM     10  C   LIG d   1      11.184  10.594   0.908  0.00  0.00     0.013 C 
ATOM     11  C   LIG d   1      11.429   9.133   1.225  0.00  0.00     0.164 C 
ATOM     12  O   LIG d   1      12.048   8.800   2.213  0.00  0.00    -0.292 OA
ATOM     13  H   LIG d   1       9.466   5.494  -2.123  0.00  0.00     0.062 H 
ATOM     14  H   LIG d   1      11.067   4.818  -0.382  0.00  0.00     0.062 H 
ATOM     15  H   LIG d   1      11.982   6.496   1.168  0.00  0.00     0.062 H 
ATOM     16  H   LIG d   1       8.775   7.841  -2.332  0.00  0.00     0.062 H 
ATOM     17  H   LIG d   1       9.494  11.774   0.270  0.00  0.00     0.030 H 
ATOM     18  H   LIG d   1       9.064  10.321   1.204  0.00  0.00     0.030 H 
ATOM     19  H   LIG d   1      11.325  11.160   1.721  0.00  0.00     0.035 H 
ATOM     20  H   LIG d   1      11.860  10.920   0.117  0.00  0.00     0.035 H 
ENDROOT
BRANCH   7  21
ATOM     21  O   LIG d   1       8.164   9.970  -1.229  0.00  0.00    -0.387 OA
ATOM     22  H   LIG d   1       7.604  10.481  -0.627  0.00  0.00     0.210 HD
ENDBRANCH   7  21
TORSDOF 1
ENDMDL
MODEL 8
REMARK VINA RESULT:      -4.8      1.756      3.209
REMARK  1 active torsions:
REMARK  status: ('A' for Active; 'I' for Inactive)
REMARK    1  A    between atoms: C_7  and  O_13 
ROOT
ATOM      1  C   LIG d   1       3.599  -2.018  -2.587  0.00  0.00    -0.061 A 
ATOM      2  C   LIG d   1       4.297  -2.963  -3.320  0.00  0.00    -0.061 A 
ATOM      3  C   LIG d   1       5.431  -2.595  -4.013  0.00  0.00    -0.051 A 
ATOM      4  C   LIG d   1       5.871  -1.269  -3.972  0.00  0.00     0.023 A 
ATOM      5  C   LIG d   1       5.162  -0.318  -3.236  0.00  0.00    -0.009 A 
ATOM      6  C   LIG d   1       4.028  -0.705  -2.546  0.00  0.00    -0.056 A 
ATOM      7  C   LIG d   1       5.602   1.120  -3.176  0.00  0.00     0.081 C 
ATOM      8  H   LIG d   1       5.026   1.700  -3.898  0.00  0.00     0.064 H 
ATOM      9  C   LIG d   1       7.088   1.258  -3.493  0.00  0.00    -0.016 C 
ATOM     10  C   LIG d   1       7.382   0.601  -4.848  0.00  0.00     0.013 C 
ATOM     11  C   LIG d   1       7.090  -0.879  -4.706  0.00  0.00     0.164 C 
ATOM     12  O   LIG d   1       7.832  -1.713  -5.179  0.00  0.00    -0.292 OA
ATOM     13  H   LIG d   1       2.712  -2.310  -2.044  0.00  0.00     0.062 H 
ATOM     14  H   LIG d   1       3.954  -3.986  -3.349  0.00  0.00     0.062 H 
ATOM     15  H   LIG d   1       5.978  -3.330  -4.585  0.00  0.00     0.062 H 
ATOM     16  H   LIG d   1       3.474   0.023  -1.971  0.00  0.00     0.062 H 
ATOM     17  H   LIG d   1       7.354   2.314  -3.536  0.00  0.00     0.030 H 
ATOM     18  H   LIG d   1       7.673   0.766  -2.717  0.00  0.00     0.030 H 
ATOM     19  H   LIG d   1       8.341   0.750  -5.091  0.00  0.00     0.035 H 
ATOM     20  H   LIG d   1       6.742   1.033  -5.618  0.00  0.00     0.035 H 
ENDROOT
BRANCH   7  21
ATOM     21  O   LIG d   1       5.354   1.630  -1.864  0.00  0.00    -0.387 OA
ATOM     22  H   LIG d   1       5.156   2.576  -1.840  0.00  0.00     0.210 HD
ENDBRANCH   7  21
TORSDOF 1
ENDMDL
MODEL 9
REMARK VINA RESULT:      -4.6      2.259      3.914
REMARK  1 active torsions:
REMARK  status: ('A' for Active; 'I' for Inactive)
REMARK    1  A    between atoms: C_7  and  O_13 
ROOT
ATOM      1  C   LIG d   1       5.999  -0.614  -6.910  0.00  0.00    -0.061 A 
ATOM      2  C   LIG d   1       4.681  -0.234  -7.094  0.00  0.00    -0.061 A 
ATOM      3  C   LIG d   1       3.778  -0.360  -6.060  0.00  0.00    -0.051 A 
ATOM      4  C   LIG d   1       4.198  -0.872  -4.829  0.00  0.00     0.023 A 
ATOM      5  C   LIG d   1       5.527  -1.259  -4.648  0.00  0.00    -0.009 A 
ATOM      6  C   LIG d   1       6.420  -1.123  -5.696  0.00  0.00    -0.056 A 
ATOM      7  C   LIG d   1       6.013  -1.821  -3.340  0.00  0.00     0.081 C 
ATOM      8  H   LIG d   1       6.027  -2.910  -3.402  0.00  0.00     0.064 H 
ATOM      9  C   LIG d   1       5.111  -1.397  -2.186  0.00  0.00    -0.016 C 
ATOM     10  C   LIG d   1       3.661  -1.790  -2.503  0.00  0.00     0.013 C 
ATOM     11  C   LIG d   1       3.233  -0.998  -3.720  0.00  0.00     0.164 C 
ATOM     12  O   LIG d   1       2.136  -0.485  -3.782  0.00  0.00    -0.292 OA
ATOM     13  H   LIG d   1       6.705  -0.512  -7.723  0.00  0.00     0.062 H 
ATOM     14  H   LIG d   1       4.360   0.162  -8.047  0.00  0.00     0.062 H 
ATOM     15  H   LIG d   1       2.749  -0.064  -6.201  0.00  0.00     0.062 H 
ATOM     16  H   LIG d   1       7.450  -1.417  -5.566  0.00  0.00     0.062 H 
ATOM     17  H   LIG d   1       5.431  -1.895  -1.271  0.00  0.00     0.030 H 
ATOM     18  H   LIG d   1       5.173  -0.317  -2.053  0.00  0.00     0.030 H 
ATOM     19  H   LIG d   1       3.078  -1.576  -1.718  0.00  0.00     0.035 H 
ATOM     20  H   LIG d   1       3.604  -2.858  -2.715  0.00  0.00     0.035 H 
ENDROOT
BRANCH   7  21
ATOM     21  O   LIG d   1       7.340  -1.351  -3.094  0.00  0.00    -0.387 OA
ATOM     22  H   LIG d   1       7.735  -0.875  -3.839  0.00  0.00     0.210 HD
ENDBRANCH   7  21
TORSDOF 1
ENDMDL
MODEL 10
REMARK VINA RESULT:      -4.3      7.721      9.566
REMARK  1 active torsions:
REMARK  status: ('A' for Active; 'I' for Inactive)
REMARK    1  A    between atoms: C_7  and  O_13 
ROOT
ATOM      1  C   LIG d   1       9.638   4.306  -4.013  0.00  0.00    -0.061 A 
ATOM      2  C   LIG d   1       9.349   5.454  -4.729  0.00  0.00    -0.061 A 
ATOM      3  C   LIG d   1       9.467   6.688  -4.127  0.00  0.00    -0.051 A 
ATOM      4  C   LIG d   1       9.878   6.774  -2.793  0.00  0.00     0.023 A 
ATOM      5  C   LIG d   1      10.164   5.614  -2.072  0.00  0.00    -0.009 A 
ATOM      6  C   LIG d   1      10.043   4.384  -2.694  0.00  0.00    -0.056 A 
ATOM      7  C   LIG d   1      10.602   5.668  -0.634  0.00  0.00     0.081 C 
ATOM      8  H   LIG d   1       9.740   5.485   0.009  0.00  0.00     0.064 H 
ATOM      9  C   LIG d   1      11.205   7.026  -0.289  0.00  0.00    -0.016 C 
ATOM     10  C   LIG d   1      10.205   8.133  -0.650  0.00  0.00     0.013 C 
ATOM     11  C   LIG d   1      10.013   8.096  -2.152  0.00  0.00     0.164 C 
ATOM     12  O   LIG d   1       9.971   9.117  -2.804  0.00  0.00    -0.292 OA
ATOM     13  H   LIG d   1       9.546   3.340  -4.489  0.00  0.00     0.062 H 
ATOM     14  H   LIG d   1       9.032   5.384  -5.759  0.00  0.00     0.062 H 
ATOM     15  H   LIG d   1       9.242   7.587  -4.683  0.00  0.00     0.062 H 
ATOM     16  H   LIG d   1      10.265   3.481  -2.146  0.00  0.00     0.062 H 
ATOM     17  H   LIG d   1      11.424   7.067   0.778  0.00  0.00     0.030 H 
ATOM     18  H   LIG d   1      12.125   7.170  -0.855  0.00  0.00     0.030 H 
ATOM     19  H   LIG d   1      10.570   9.019  -0.362  0.00  0.00     0.035 H 
ATOM     20  H   LIG d   1       9.254   7.952  -0.149  0.00  0.00     0.035 H 
ENDROOT
BRANCH   7  21
ATOM     21  O   LIG d   1      11.579   4.650  -0.405  0.00  0.00    -0.387 OA
ATOM     22  H   LIG d   1      12.198   4.525  -1.137  0.00  0.00     0.210 HD
ENDBRANCH   7  21
TORSDOF 1
ENDMDL
