MODEL 1
REMARK VINA RESULT:      -8.0      0.000      0.000
REMARK  2 active torsions:
REMARK  status: ('A' for Active; 'I' for Inactive)
REMARK    1  A    between atoms: C_1  and  C_2 
REMARK    2  A    between atoms: C_6  and  N_8 
ROOT
ATOM      1  N   LIG d   1       9.742   3.642  -4.342  0.00  0.00    -0.293 NA
ATOM      2  C   LIG d   1       8.401   3.182  -3.954  0.00  0.00     0.047 C 
ATOM      3  C   LIG d   1       8.186   1.775  -4.450  0.00  0.00     0.054 A 
ATOM      4  C   LIG d   1       8.992   1.240  -5.438  0.00  0.00     0.131 A 
ATOM      5  C   LIG d   1       8.778  -0.059  -5.892  0.00  0.00    -0.019 A 
ATOM      6  C   LIG d   1       7.763  -0.821  -5.360  0.00  0.00    -0.047 A 
ATOM      7  C   LIG d   1       6.947  -0.291  -4.363  0.00  0.00     0.026 A 
ATOM      8  C   LIG d   1       7.157   1.016  -3.902  0.00  0.00     0.148 A 
ATOM      9  O   LIG d   1       6.379   1.550  -2.933  0.00  0.00    -0.421 OA
ATOM     10  C   LIG d   1       5.368   0.878  -2.358  0.00  0.00     0.345 A 
ATOM     11  O   LIG d   1       4.703   1.412  -1.492  0.00  0.00    -0.244 OA
ATOM     12  C   LIG d   1       5.062  -0.499  -2.771  0.00  0.00     0.067 A 
ATOM     13  C   LIG d   1       5.854  -1.092  -3.779  0.00  0.00    -0.000 A 
ATOM     14  C   LIG d   1       5.590  -2.391  -4.190  0.00  0.00    -0.053 A 
ATOM     15  C   LIG d   1       4.553  -3.094  -3.608  0.00  0.00    -0.061 A 
ATOM     16  C   LIG d   1       3.775  -2.513  -2.619  0.00  0.00    -0.061 A 
ATOM     17  C   LIG d   1       4.021  -1.223  -2.196  0.00  0.00    -0.047 A 
ATOM     18  O   LIG d   1      10.003   1.970  -5.981  0.00  0.00    -0.473 OA
ATOM     19  C   LIG d   1       9.972   3.383  -5.773  0.00  0.00     0.157 C 
ATOM     20  H   LIG d   1       8.310   3.202  -2.858  0.00  0.00     0.052 H 
ATOM     21  H   LIG d   1       7.644   3.846  -4.397  0.00  0.00     0.052 H 
ATOM     22  H   LIG d   1       9.411  -0.470  -6.665  0.00  0.00     0.065 H 
ATOM     23  H   LIG d   1       7.599  -1.829  -5.715  0.00  0.00     0.063 H 
ATOM     24  H   LIG d   1       6.191  -2.850  -4.961  0.00  0.00     0.062 H 
ATOM     25  H   LIG d   1       4.347  -4.104  -3.927  0.00  0.00     0.062 H 
ATOM     26  H   LIG d   1       2.968  -3.077  -2.173  0.00  0.00     0.062 H 
ATOM     27  H   LIG d   1       3.411  -0.779  -1.424  0.00  0.00     0.063 H 
ATOM     28  H   LIG d   1       9.157   3.831  -6.362  0.00  0.00     0.091 H 
ATOM     29  H   LIG d   1      10.931   3.828  -6.077  0.00  0.00     0.091 H 
ENDROOT
BRANCH   1  30
ATOM     30  C   LIG d   1       9.913   4.996  -4.044  0.00  0.00     0.033 A 
ATOM     31  C   LIG d   1      10.071   5.920  -5.069  0.00  0.00    -0.041 A 
ATOM     32  C   LIG d   1      10.233   7.259  -4.772  0.00  0.00    -0.060 A 
ATOM     33  H   LIG d   1      10.063   5.591  -6.099  0.00  0.00     0.064 H 
ATOM     34  C   LIG d   1      10.250   7.678  -3.455  0.00  0.00    -0.059 A 
ATOM     35  H   LIG d   1      10.351   7.978  -5.569  0.00  0.00     0.062 H 
ATOM     36  C   LIG d   1      10.093   6.761  -2.431  0.00  0.00    -0.049 A 
ATOM     37  H   LIG d   1      10.382   8.725  -3.225  0.00  0.00     0.062 H 
ATOM     38  C   LIG d   1       9.925   5.422  -2.723  0.00  0.00    -0.038 A 
ATOM     39  H   LIG d   1       9.802   4.706  -1.923  0.00  0.00     0.064 H 
BRANCH  36  40
ATOM     40  C   LIG d   1      10.106   7.224  -0.998  0.00  0.00    -0.040 C 
ATOM     41  H   LIG d   1       9.112   7.070  -0.553  0.00  0.00     0.028 H 
ATOM     42  H   LIG d   1      10.362   8.294  -0.960  0.00  0.00     0.028 H 
ATOM     43  H   LIG d   1      10.854   6.649  -0.433  0.00  0.00     0.028 H 
ENDBRANCH  36  40
ENDBRANCH   1  30
TORSDOF 2
ENDMDL
MODEL 2
REMARK VINA RESULT:      -7.4      2.088      7.742
REMARK  2 active torsions:
REMARK  status: ('A' for Active; 'I' for Inactive)
REMARK    1  A    between atoms: C_1  and  C_2 
REMARK    2  A    between atoms: C_6  and  N_8 
ROOT
ATOM      1  N   LIG d   1       6.693   1.217  -4.554  0.00  0.00    -0.293 NA
ATOM      2  C   LIG d   1       7.758   1.930  -3.835  0.00  0.00     0.047 C 
ATOM      3  C   LIG d   1       8.728   2.524  -4.826  0.00  0.00     0.054 A 
ATOM      4  C   LIG d   1       8.765   2.079  -6.135  0.00  0.00     0.131 A 
ATOM      5  C   LIG d   1       9.670   2.631  -7.039  0.00  0.00    -0.019 A 
ATOM      6  C   LIG d   1      10.535   3.624  -6.635  0.00  0.00    -0.047 A 
ATOM      7  C   LIG d   1      10.502   4.079  -5.319  0.00  0.00     0.026 A 
ATOM      8  C   LIG d   1       9.594   3.527  -4.405  0.00  0.00     0.148 A 
ATOM      9  O   LIG d   1       9.544   3.955  -3.123  0.00  0.00    -0.421 OA
ATOM     10  C   LIG d   1      10.349   4.918  -2.645  0.00  0.00     0.345 A 
ATOM     11  O   LIG d   1      10.257   5.261  -1.482  0.00  0.00    -0.244 OA
ATOM     12  C   LIG d   1      11.338   5.561  -3.520  0.00  0.00     0.067 A 
ATOM     13  C   LIG d   1      11.420   5.142  -4.867  0.00  0.00    -0.000 A 
ATOM     14  C   LIG d   1      12.345   5.730  -5.719  0.00  0.00    -0.053 A 
ATOM     15  C   LIG d   1      13.179   6.722  -5.241  0.00  0.00    -0.061 A 
ATOM     16  C   LIG d   1      13.100   7.134  -3.920  0.00  0.00    -0.061 A 
ATOM     17  C   LIG d   1      12.187   6.562  -3.057  0.00  0.00    -0.047 A 
ATOM     18  O   LIG d   1       7.922   1.100  -6.561  0.00  0.00    -0.473 OA
ATOM     19  C   LIG d   1       7.278   0.313  -5.558  0.00  0.00     0.157 C 
ATOM     20  H   LIG d   1       7.316   2.734  -3.229  0.00  0.00     0.052 H 
ATOM     21  H   LIG d   1       8.292   1.226  -3.178  0.00  0.00     0.052 H 
ATOM     22  H   LIG d   1       9.694   2.278  -8.059  0.00  0.00     0.065 H 
ATOM     23  H   LIG d   1      11.235   4.050  -7.339  0.00  0.00     0.063 H 
ATOM     24  H   LIG d   1      12.412   5.414  -6.749  0.00  0.00     0.062 H 
ATOM     25  H   LIG d   1      13.898   7.180  -5.903  0.00  0.00     0.062 H 
ATOM     26  H   LIG d   1      13.759   7.912  -3.563  0.00  0.00     0.062 H 
ATOM     27  H   LIG d   1      12.133   6.890  -2.030  0.00  0.00     0.063 H 
ATOM     28  H   LIG d   1       8.011  -0.349  -5.073  0.00  0.00     0.091 H 
ATOM     29  H   LIG d   1       6.481  -0.295  -6.013  0.00  0.00     0.091 H 
ENDROOT
BRANCH   1  30
ATOM     30  C   LIG d   1       5.872   0.517  -3.667  0.00  0.00     0.033 A 
ATOM     31  C   LIG d   1       5.389   1.142  -2.525  0.00  0.00    -0.041 A 
ATOM     32  C   LIG d   1       4.572   0.449  -1.654  0.00  0.00    -0.060 A 
ATOM     33  H   LIG d   1       5.649   2.171  -2.321  0.00  0.00     0.064 H 
ATOM     34  C   LIG d   1       4.245  -0.869  -1.911  0.00  0.00    -0.059 A 
ATOM     35  H   LIG d   1       4.192   0.937  -0.768  0.00  0.00     0.062 H 
ATOM     36  C   LIG d   1       4.724  -1.495  -3.047  0.00  0.00    -0.049 A 
ATOM     37  H   LIG d   1       3.610  -1.410  -1.225  0.00  0.00     0.062 H 
ATOM     38  C   LIG d   1       5.537  -0.806  -3.926  0.00  0.00    -0.038 A 
ATOM     39  H   LIG d   1       5.911  -1.295  -4.813  0.00  0.00     0.064 H 
BRANCH  36  40
ATOM     40  C   LIG d   1       4.360  -2.930  -3.326  0.00  0.00    -0.040 C 
ATOM     41  H   LIG d   1       4.941  -3.591  -2.667  0.00  0.00     0.028 H 
ATOM     42  H   LIG d   1       4.587  -3.169  -4.376  0.00  0.00     0.028 H 
ATOM     43  H   LIG d   1       3.287  -3.079  -3.141  0.00  0.00     0.028 H 
ENDBRANCH  36  40
ENDBRANCH   1  30
TORSDOF 2
ENDMDL
MODEL 3
REMARK VINA RESULT:      -6.8      1.994      7.858
REMARK  2 active torsions:
REMARK  status: ('A' for Active; 'I' for Inactive)
REMARK    1  A    between atoms: C_1  and  C_2 
REMARK    2  A    between atoms: C_6  and  N_8 
ROOT
ATOM      1  N   LIG d   1       7.533   1.661  -4.984  0.00  0.00    -0.293 NA
ATOM      2  C   LIG d   1       8.448   2.420  -4.120  0.00  0.00     0.047 C 
ATOM      3  C   LIG d   1       9.155   3.474  -4.934  0.00  0.00     0.054 A 
ATOM      4  C   LIG d   1       9.189   3.399  -6.315  0.00  0.00     0.131 A 
ATOM      5  C   LIG d   1       9.852   4.375  -7.055  0.00  0.00    -0.019 A 
ATOM      6  C   LIG d   1      10.477   5.423  -6.418  0.00  0.00    -0.047 A 
ATOM      7  C   LIG d   1      10.446   5.508  -5.027  0.00  0.00     0.026 A 
ATOM      8  C   LIG d   1       9.781   4.528  -4.277  0.00  0.00     0.148 A 
ATOM      9  O   LIG d   1       9.737   4.591  -2.927  0.00  0.00    -0.421 OA
ATOM     10  C   LIG d   1      10.318   5.577  -2.224  0.00  0.00     0.345 A 
ATOM     11  O   LIG d   1      10.244   5.579  -1.011  0.00  0.00    -0.244 OA
ATOM     12  C   LIG d   1      11.042   6.653  -2.915  0.00  0.00     0.067 A 
ATOM     13  C   LIG d   1      11.110   6.623  -4.325  0.00  0.00    -0.000 A 
ATOM     14  C   LIG d   1      11.787   7.625  -5.007  0.00  0.00    -0.053 A 
ATOM     15  C   LIG d   1      12.390   8.645  -4.297  0.00  0.00    -0.061 A 
ATOM     16  C   LIG d   1      12.325   8.676  -2.913  0.00  0.00    -0.061 A 
ATOM     17  C   LIG d   1      11.656   7.690  -2.217  0.00  0.00    -0.047 A 
ATOM     18  O   LIG d   1       8.579   2.376  -6.971  0.00  0.00    -0.473 OA
ATOM     19  C   LIG d   1       8.234   1.222  -6.202  0.00  0.00     0.157 C 
ATOM     20  H   LIG d   1       7.875   2.903  -3.315  0.00  0.00     0.052 H 
ATOM     21  H   LIG d   1       9.191   1.736  -3.682  0.00  0.00     0.052 H 
ATOM     22  H   LIG d   1       9.875   4.310  -8.132  0.00  0.00     0.065 H 
ATOM     23  H   LIG d   1      10.990   6.179  -6.995  0.00  0.00     0.063 H 
ATOM     24  H   LIG d   1      11.843   7.607  -6.085  0.00  0.00     0.062 H 
ATOM     25  H   LIG d   1      12.917   9.425  -4.826  0.00  0.00     0.062 H 
ATOM     26  H   LIG d   1      12.801   9.482  -2.373  0.00  0.00     0.062 H 
ATOM     27  H   LIG d   1      11.610   7.722  -1.139  0.00  0.00     0.063 H 
ATOM     28  H   LIG d   1       9.145   0.672  -5.922  0.00  0.00     0.091 H 
ATOM     29  H   LIG d   1       7.575   0.564  -6.788  0.00  0.00     0.091 H 
ENDROOT
BRANCH   1  30
ATOM     30  C   LIG d   1       6.987   0.572  -4.301  0.00  0.00     0.033 A 
ATOM     31  C   LIG d   1       7.460  -0.711  -4.543  0.00  0.00    -0.041 A 
ATOM     32  C   LIG d   1       6.922  -1.784  -3.861  0.00  0.00    -0.060 A 
ATOM     33  H   LIG d   1       8.252  -0.868  -5.262  0.00  0.00     0.064 H 
ATOM     34  C   LIG d   1       5.905  -1.584  -2.947  0.00  0.00    -0.059 A 
ATOM     35  H   LIG d   1       7.294  -2.781  -4.045  0.00  0.00     0.062 H 
ATOM     36  C   LIG d   1       5.431  -0.308  -2.702  0.00  0.00    -0.049 A 
ATOM     37  H   LIG d   1       5.483  -2.426  -2.417  0.00  0.00     0.062 H 
ATOM     38  C   LIG d   1       5.969   0.770  -3.378  0.00  0.00    -0.038 A 
ATOM     39  H   LIG d   1       5.598   1.767  -3.187  0.00  0.00     0.064 H 
BRANCH  36  40
ATOM     40  C   LIG d   1       4.326  -0.094  -1.701  0.00  0.00    -0.040 C 
ATOM     41  H   LIG d   1       4.223   0.981  -1.491  0.00  0.00     0.028 H 
ATOM     42  H   LIG d   1       4.568  -0.627  -0.769  0.00  0.00     0.028 H 
ATOM     43  H   LIG d   1       3.381  -0.480  -2.108  0.00  0.00     0.028 H 
ENDBRANCH  36  40
ENDBRANCH   1  30
TORSDOF 2
ENDMDL
MODEL 4
REMARK VINA RESULT:      -6.6      4.593      7.176
REMARK  2 active torsions:
REMARK  status: ('A' for Active; 'I' for Inactive)
REMARK    1  A    between atoms: C_1  and  C_2 
REMARK    2  A    between atoms: C_6  and  N_8 
ROOT
ATOM      1  N   LIG d   1      10.041   6.182  -1.787  0.00  0.00    -0.293 NA
ATOM      2  C   LIG d   1      10.311   6.730  -3.124  0.00  0.00     0.047 C 
ATOM      3  C   LIG d   1      10.089   5.660  -4.163  0.00  0.00     0.054 A 
ATOM      4  C   LIG d   1      10.044   4.324  -3.806  0.00  0.00     0.131 A 
ATOM      5  C   LIG d   1       9.845   3.345  -4.777  0.00  0.00    -0.019 A 
ATOM      6  C   LIG d   1       9.690   3.700  -6.099  0.00  0.00    -0.047 A 
ATOM      7  C   LIG d   1       9.731   5.043  -6.466  0.00  0.00     0.026 A 
ATOM      8  C   LIG d   1       9.932   6.033  -5.494  0.00  0.00     0.148 A 
ATOM      9  O   LIG d   1       9.974   7.343  -5.827  0.00  0.00    -0.421 OA
ATOM     10  C   LIG d   1       9.832   7.778  -7.089  0.00  0.00     0.345 A 
ATOM     11  O   LIG d   1       9.879   8.969  -7.327  0.00  0.00    -0.244 OA
ATOM     12  C   LIG d   1       9.618   6.822  -8.185  0.00  0.00     0.067 A 
ATOM     13  C   LIG d   1       9.567   5.444  -7.876  0.00  0.00    -0.000 A 
ATOM     14  C   LIG d   1       9.367   4.515  -8.888  0.00  0.00    -0.053 A 
ATOM     15  C   LIG d   1       9.219   4.948 -10.192  0.00  0.00    -0.061 A 
ATOM     16  C   LIG d   1       9.269   6.300 -10.496  0.00  0.00    -0.061 A 
ATOM     17  C   LIG d   1       9.467   7.238  -9.504  0.00  0.00    -0.047 A 
ATOM     18  O   LIG d   1      10.193   3.945  -2.509  0.00  0.00    -0.473 OA
ATOM     19  C   LIG d   1      10.750   4.905  -1.610  0.00  0.00     0.157 C 
ATOM     20  H   LIG d   1       9.634   7.574  -3.318  0.00  0.00     0.052 H 
ATOM     21  H   LIG d   1      11.355   7.077  -3.174  0.00  0.00     0.052 H 
ATOM     22  H   LIG d   1       9.812   2.304  -4.492  0.00  0.00     0.065 H 
ATOM     23  H   LIG d   1       9.535   2.938  -6.849  0.00  0.00     0.063 H 
ATOM     24  H   LIG d   1       9.328   3.461  -8.659  0.00  0.00     0.062 H 
ATOM     25  H   LIG d   1       9.063   4.228 -10.980  0.00  0.00     0.062 H 
ATOM     26  H   LIG d   1       9.151   6.622 -11.521  0.00  0.00     0.062 H 
ATOM     27  H   LIG d   1       9.505   8.289  -9.750  0.00  0.00     0.063 H 
ATOM     28  H   LIG d   1      11.819   5.046  -1.827  0.00  0.00     0.091 H 
ATOM     29  H   LIG d   1      10.630   4.560  -0.572  0.00  0.00     0.091 H 
ENDROOT
BRANCH   1  30
ATOM     30  C   LIG d   1      10.396   7.095  -0.791  0.00  0.00     0.033 A 
ATOM     31  C   LIG d   1      11.016   6.652   0.370  0.00  0.00    -0.041 A 
ATOM     32  C   LIG d   1      11.372   7.558   1.350  0.00  0.00    -0.060 A 
ATOM     33  H   LIG d   1      11.224   5.600   0.504  0.00  0.00     0.064 H 
ATOM     34  C   LIG d   1      11.101   8.903   1.181  0.00  0.00    -0.059 A 
ATOM     35  H   LIG d   1      11.859   7.215   2.251  0.00  0.00     0.062 H 
ATOM     36  C   LIG d   1      10.483   9.348   0.026  0.00  0.00    -0.049 A 
ATOM     37  H   LIG d   1      11.376   9.609   1.951  0.00  0.00     0.062 H 
ATOM     38  C   LIG d   1      10.130   8.448  -0.960  0.00  0.00    -0.038 A 
ATOM     39  H   LIG d   1       9.648   8.795  -1.862  0.00  0.00     0.064 H 
BRANCH  36  40
ATOM     40  C   LIG d   1      10.195  10.815  -0.156  0.00  0.00    -0.040 C 
ATOM     41  H   LIG d   1      11.125  11.343  -0.416  0.00  0.00     0.028 H 
ATOM     42  H   LIG d   1       9.789  11.228   0.780  0.00  0.00     0.028 H 
ATOM     43  H   LIG d   1       9.461  10.948  -0.964  0.00  0.00     0.028 H 
ENDBRANCH  36  40
ENDBRANCH   1  30
TORSDOF 2
ENDMDL
MODEL 5
REMARK VINA RESULT:      -6.6      5.254      8.681
REMARK  2 active torsions:
REMARK  status: ('A' for Active; 'I' for Inactive)
REMARK    1  A    between atoms: C_1  and  C_2 
REMARK    2  A    between atoms: C_6  and  N_8 
ROOT
ATOM      1  N   LIG d   1      11.105  10.312   1.132  0.00  0.00    -0.293 NA
ATOM      2  C   LIG d   1      11.105   9.800  -0.246  0.00  0.00     0.047 C 
ATOM      3  C   LIG d   1      11.002   8.295  -0.226  0.00  0.00     0.054 A 
ATOM      4  C   LIG d   1      11.280   7.581   0.925  0.00  0.00     0.131 A 
ATOM      5  C   LIG d   1      11.188   6.191   0.927  0.00  0.00    -0.019 A 
ATOM      6  C   LIG d   1      10.818   5.518  -0.216  0.00  0.00    -0.047 A 
ATOM      7  C   LIG d   1      10.534   6.230  -1.378  0.00  0.00     0.026 A 
ATOM      8  C   LIG d   1      10.625   7.629  -1.388  0.00  0.00     0.148 A 
ATOM      9  O   LIG d   1      10.352   8.341  -2.505  0.00  0.00    -0.421 OA
ATOM     10  C   LIG d   1       9.983   7.767  -3.662  0.00  0.00     0.345 A 
ATOM     11  O   LIG d   1       9.750   8.461  -4.633  0.00  0.00    -0.244 OA
ATOM     12  C   LIG d   1       9.859   6.307  -3.759  0.00  0.00     0.067 A 
ATOM     13  C   LIG d   1      10.135   5.529  -2.613  0.00  0.00    -0.000 A 
ATOM     14  C   LIG d   1      10.026   4.146  -2.674  0.00  0.00    -0.053 A 
ATOM     15  C   LIG d   1       9.648   3.542  -3.857  0.00  0.00    -0.061 A 
ATOM     16  C   LIG d   1       9.378   4.304  -4.983  0.00  0.00    -0.061 A 
ATOM     17  C   LIG d   1       9.479   5.680  -4.943  0.00  0.00    -0.047 A 
ATOM     18  O   LIG d   1      11.647   8.219   2.068  0.00  0.00    -0.473 OA
ATOM     19  C   LIG d   1      12.083   9.574   1.947  0.00  0.00     0.157 C 
ATOM     20  H   LIG d   1      10.247  10.218  -0.793  0.00  0.00     0.052 H 
ATOM     21  H   LIG d   1      12.039  10.096  -0.747  0.00  0.00     0.052 H 
ATOM     22  H   LIG d   1      11.408   5.639   1.829  0.00  0.00     0.065 H 
ATOM     23  H   LIG d   1      10.747   4.440  -0.210  0.00  0.00     0.063 H 
ATOM     24  H   LIG d   1      10.237   3.545  -1.801  0.00  0.00     0.062 H 
ATOM     25  H   LIG d   1       9.564   2.467  -3.906  0.00  0.00     0.062 H 
ATOM     26  H   LIG d   1       9.082   3.816  -5.901  0.00  0.00     0.062 H 
ATOM     27  H   LIG d   1       9.266   6.265  -5.825  0.00  0.00     0.063 H 
ATOM     28  H   LIG d   1      13.068   9.608   1.457  0.00  0.00     0.091 H 
ATOM     29  H   LIG d   1      12.154  10.036   2.943  0.00  0.00     0.091 H 
ENDROOT
BRANCH   1  30
ATOM     30  C   LIG d   1      11.365  11.684   1.156  0.00  0.00     0.033 A 
ATOM     31  C   LIG d   1      12.516  12.163   1.767  0.00  0.00    -0.041 A 
ATOM     32  C   LIG d   1      12.774  13.520   1.783  0.00  0.00    -0.060 A 
ATOM     33  H   LIG d   1      13.212  11.474   2.224  0.00  0.00     0.064 H 
ATOM     34  C   LIG d   1      11.882  14.401   1.203  0.00  0.00    -0.059 A 
ATOM     35  H   LIG d   1      13.672  13.892   2.253  0.00  0.00     0.062 H 
ATOM     36  C   LIG d   1      10.733  13.928   0.593  0.00  0.00    -0.049 A 
ATOM     37  H   LIG d   1      12.083  15.462   1.221  0.00  0.00     0.062 H 
ATOM     38  C   LIG d   1      10.473  12.572   0.569  0.00  0.00    -0.038 A 
ATOM     39  H   LIG d   1       9.576  12.202   0.094  0.00  0.00     0.064 H 
BRANCH  36  40
ATOM     40  C   LIG d   1       9.766  14.892  -0.042  0.00  0.00    -0.040 C 
ATOM     41  H   LIG d   1      10.326  15.679  -0.569  0.00  0.00     0.028 H 
ATOM     42  H   LIG d   1       9.138  15.349   0.737  0.00  0.00     0.028 H 
ATOM     43  H   LIG d   1       9.129  14.354  -0.759  0.00  0.00     0.028 H 
ENDBRANCH  36  40
ENDBRANCH   1  30
TORSDOF 2
ENDMDL
MODEL 6
REMARK VINA RESULT:      -6.6      5.217      7.418
REMARK  2 active torsions:
REMARK  status: ('A' for Active; 'I' for Inactive)
REMARK    1  A    between atoms: C_1  and  C_2 
REMARK    2  A    between atoms: C_6  and  N_8 
ROOT
ATOM      1  N   LIG d   1      10.207   7.932  -0.735  0.00  0.00    -0.293 NA
ATOM      2  C   LIG d   1      10.461   8.043  -2.179  0.00  0.00     0.047 C 
ATOM      3  C   LIG d   1      10.272   6.696  -2.830  0.00  0.00     0.054 A 
ATOM      4  C   LIG d   1      10.269   5.537  -2.075  0.00  0.00     0.131 A 
ATOM      5  C   LIG d   1      10.101   4.299  -2.690  0.00  0.00    -0.019 A 
ATOM      6  C   LIG d   1       9.935   4.218  -4.054  0.00  0.00    -0.047 A 
ATOM      7  C   LIG d   1       9.935   5.381  -4.822  0.00  0.00     0.026 A 
ATOM      8  C   LIG d   1      10.104   6.630  -4.209  0.00  0.00     0.148 A 
ATOM      9  O   LIG d   1      10.106   7.771  -4.935  0.00  0.00    -0.421 OA
ATOM     10  C   LIG d   1       9.951   7.786  -6.269  0.00  0.00     0.345 A 
ATOM     11  O   LIG d   1       9.960   8.844  -6.867  0.00  0.00    -0.244 OA
ATOM     12  C   LIG d   1       9.768   6.530  -7.009  0.00  0.00     0.067 A 
ATOM     13  C   LIG d   1       9.759   5.317  -6.286  0.00  0.00    -0.000 A 
ATOM     14  C   LIG d   1       9.588   4.113  -6.956  0.00  0.00    -0.053 A 
ATOM     15  C   LIG d   1       9.428   4.113  -8.328  0.00  0.00    -0.061 A 
ATOM     16  C   LIG d   1       9.436   5.303  -9.039  0.00  0.00    -0.061 A 
ATOM     17  C   LIG d   1       9.604   6.509  -8.392  0.00  0.00    -0.047 A 
ATOM     18  O   LIG d   1      10.429   5.586  -0.725  0.00  0.00    -0.473 OA
ATOM     19  C   LIG d   1      10.955   6.795  -0.175  0.00  0.00     0.157 C 
ATOM     20  H   LIG d   1       9.758   8.764  -2.621  0.00  0.00     0.052 H 
ATOM     21  H   LIG d   1      11.493   8.387  -2.344  0.00  0.00     0.052 H 
ATOM     22  H   LIG d   1      10.100   3.398  -2.094  0.00  0.00     0.065 H 
ATOM     23  H   LIG d   1       9.805   3.256  -4.528  0.00  0.00     0.063 H 
ATOM     24  H   LIG d   1       9.582   3.182  -6.409  0.00  0.00     0.062 H 
ATOM     25  H   LIG d   1       9.295   3.178  -8.851  0.00  0.00     0.062 H 
ATOM     26  H   LIG d   1       9.308   5.285 -10.112  0.00  0.00     0.062 H 
ATOM     27  H   LIG d   1       9.609   7.431  -8.953  0.00  0.00     0.063 H 
ATOM     28  H   LIG d   1      12.020   6.893  -0.436  0.00  0.00     0.091 H 
ATOM     29  H   LIG d   1      10.846   6.788   0.920  0.00  0.00     0.091 H 
ENDROOT
BRANCH   1  30
ATOM     30  C   LIG d   1      10.533   9.120  -0.077  0.00  0.00     0.033 A 
ATOM     31  C   LIG d   1      10.041  10.332  -0.544  0.00  0.00    -0.041 A 
ATOM     32  C   LIG d   1      10.359  11.504   0.113  0.00  0.00    -0.060 A 
ATOM     33  H   LIG d   1       9.405  10.357  -1.417  0.00  0.00     0.064 H 
ATOM     34  C   LIG d   1      11.178  11.474   1.226  0.00  0.00    -0.059 A 
ATOM     35  H   LIG d   1       9.972  12.446  -0.247  0.00  0.00     0.062 H 
ATOM     36  C   LIG d   1      11.670  10.268   1.695  0.00  0.00    -0.049 A 
ATOM     37  H   LIG d   1      11.430  12.392   1.736  0.00  0.00     0.062 H 
ATOM     38  C   LIG d   1      11.350   9.092   1.045  0.00  0.00    -0.038 A 
ATOM     39  H   LIG d   1      11.735   8.151   1.410  0.00  0.00     0.064 H 
BRANCH  36  40
ATOM     40  C   LIG d   1      12.557  10.239   2.912  0.00  0.00    -0.040 C 
ATOM     41  H   LIG d   1      13.590  10.012   2.609  0.00  0.00     0.028 H 
ATOM     42  H   LIG d   1      12.201   9.464   3.607  0.00  0.00     0.028 H 
ATOM     43  H   LIG d   1      12.528  11.219   3.410  0.00  0.00     0.028 H 
ENDBRANCH  36  40
ENDBRANCH   1  30
TORSDOF 2
ENDMDL
MODEL 7
REMARK VINA RESULT:      -6.5      2.701      8.553
REMARK  2 active torsions:
REMARK  status: ('A' for Active; 'I' for Inactive)
REMARK    1  A    between atoms: C_1  and  C_2 
REMARK    2  A    between atoms: C_6  and  N_8 
ROOT
ATOM      1  N   LIG d   1       8.994   4.107  -4.341  0.00  0.00    -0.293 NA
ATOM      2  C   LIG d   1       9.772   4.440  -3.140  0.00  0.00     0.047 C 
ATOM      3  C   LIG d   1       9.993   5.931  -3.078  0.00  0.00     0.054 A 
ATOM      4  C   LIG d   1       9.820   6.720  -4.201  0.00  0.00     0.131 A 
ATOM      5  C   LIG d   1      10.034   8.095  -4.132  0.00  0.00    -0.019 A 
ATOM      6  C   LIG d   1      10.418   8.679  -2.946  0.00  0.00    -0.047 A 
ATOM      7  C   LIG d   1      10.593   7.891  -1.810  0.00  0.00     0.026 A 
ATOM      8  C   LIG d   1      10.379   6.507  -1.873  0.00  0.00     0.148 A 
ATOM      9  O   LIG d   1      10.541   5.723  -0.782  0.00  0.00    -0.421 OA
ATOM     10  C   LIG d   1      10.913   6.208   0.414  0.00  0.00     0.345 A 
ATOM     11  O   LIG d   1      11.042   5.453   1.358  0.00  0.00    -0.244 OA
ATOM     12  C   LIG d   1      11.163   7.645   0.587  0.00  0.00     0.067 A 
ATOM     13  C   LIG d   1      11.003   8.496  -0.529  0.00  0.00    -0.000 A 
ATOM     14  C   LIG d   1      11.233   9.860  -0.397  0.00  0.00    -0.053 A 
ATOM     15  C   LIG d   1      11.616  10.372   0.827  0.00  0.00    -0.061 A 
ATOM     16  C   LIG d   1      11.773   9.538   1.923  0.00  0.00    -0.061 A 
ATOM     17  C   LIG d   1      11.550   8.181   1.813  0.00  0.00    -0.047 A 
ATOM     18  O   LIG d   1       9.439   6.171  -5.386  0.00  0.00    -0.473 OA
ATOM     19  C   LIG d   1       9.582   4.756  -5.523  0.00  0.00     0.157 C 
ATOM     20  H   LIG d   1       9.223   4.115  -2.245  0.00  0.00     0.052 H 
ATOM     21  H   LIG d   1      10.746   3.928  -3.181  0.00  0.00     0.052 H 
ATOM     22  H   LIG d   1       9.897   8.705  -5.012  0.00  0.00     0.065 H 
ATOM     23  H   LIG d   1      10.583   9.745  -2.896  0.00  0.00     0.063 H 
ATOM     24  H   LIG d   1      11.113  10.515  -1.247  0.00  0.00     0.062 H 
ATOM     25  H   LIG d   1      11.795  11.431   0.931  0.00  0.00     0.062 H 
ATOM     26  H   LIG d   1      12.073   9.955   2.873  0.00  0.00     0.062 H 
ATOM     27  H   LIG d   1      11.675   7.539   2.671  0.00  0.00     0.063 H 
ATOM     28  H   LIG d   1      10.648   4.492  -5.594  0.00  0.00     0.091 H 
ATOM     29  H   LIG d   1       9.060   4.413  -6.429  0.00  0.00     0.091 H 
ENDROOT
BRANCH   1  30
ATOM     30  C   LIG d   1       8.913   2.723  -4.518  0.00  0.00     0.033 A 
ATOM     31  C   LIG d   1       9.868   2.062  -5.278  0.00  0.00    -0.041 A 
ATOM     32  C   LIG d   1       9.790   0.693  -5.444  0.00  0.00    -0.060 A 
ATOM     33  H   LIG d   1      10.675   2.617  -5.734  0.00  0.00     0.064 H 
ATOM     34  C   LIG d   1       8.754  -0.017  -4.866  0.00  0.00    -0.059 A 
ATOM     35  H   LIG d   1      10.535   0.178  -6.031  0.00  0.00     0.062 H 
ATOM     36  C   LIG d   1       7.801   0.639  -4.107  0.00  0.00    -0.049 A 
ATOM     37  H   LIG d   1       8.692  -1.086  -5.001  0.00  0.00     0.062 H 
ATOM     38  C   LIG d   1       7.877   2.007  -3.933  0.00  0.00    -0.038 A 
ATOM     39  H   LIG d   1       7.133   2.518  -3.341  0.00  0.00     0.064 H 
BRANCH  36  40
ATOM     40  C   LIG d   1       6.677  -0.140  -3.474  0.00  0.00    -0.040 C 
ATOM     41  H   LIG d   1       6.690  -1.174  -3.848  0.00  0.00     0.028 H 
ATOM     42  H   LIG d   1       5.716   0.330  -3.729  0.00  0.00     0.028 H 
ATOM     43  H   LIG d   1       6.804  -0.144  -2.382  0.00  0.00     0.028 H 
ENDBRANCH  36  40
ENDBRANCH   1  30
TORSDOF 2
ENDMDL
MODEL 8
REMARK VINA RESULT:      -6.5      1.684      2.839
REMARK  2 active torsions:
REMARK  status: ('A' for Active; 'I' for Inactive)
REMARK    1  A    between atoms: C_1  and  C_2 
REMARK    2  A    between atoms: C_6  and  N_8 
ROOT
ATOM      1  N   LIG d   1      10.812   4.554  -2.971  0.00  0.00    -0.293 NA
ATOM      2  C   LIG d   1       9.494   3.910  -3.068  0.00  0.00     0.047 C 
ATOM      3  C   LIG d   1       9.425   3.088  -4.331  0.00  0.00     0.054 A 
ATOM      4  C   LIG d   1      10.328   3.291  -5.359  0.00  0.00     0.131 A 
ATOM      5  C   LIG d   1      10.248   2.530  -6.523  0.00  0.00    -0.019 A 
ATOM      6  C   LIG d   1       9.271   1.568  -6.658  0.00  0.00    -0.047 A 
ATOM      7  C   LIG d   1       8.360   1.356  -5.625  0.00  0.00     0.026 A 
ATOM      8  C   LIG d   1       8.435   2.119  -4.452  0.00  0.00     0.148 A 
ATOM      9  O   LIG d   1       7.561   1.929  -3.437  0.00  0.00    -0.421 OA
ATOM     10  C   LIG d   1       6.579   1.015  -3.483  0.00  0.00     0.345 A 
ATOM     11  O   LIG d   1       5.825   0.890  -2.538  0.00  0.00    -0.244 OA
ATOM     12  C   LIG d   1       6.413   0.163  -4.669  0.00  0.00     0.067 A 
ATOM     13  C   LIG d   1       7.306   0.331  -5.750  0.00  0.00    -0.000 A 
ATOM     14  C   LIG d   1       7.175  -0.458  -6.885  0.00  0.00    -0.053 A 
ATOM     15  C   LIG d   1       6.169  -1.403  -6.946  0.00  0.00    -0.061 A 
ATOM     16  C   LIG d   1       5.292  -1.569  -5.886  0.00  0.00    -0.061 A 
ATOM     17  C   LIG d   1       5.405  -0.794  -4.749  0.00  0.00    -0.047 A 
ATOM     18  O   LIG d   1      11.303   4.232  -5.253  0.00  0.00    -0.473 OA
ATOM     19  C   LIG d   1      11.142   5.226  -4.238  0.00  0.00     0.157 C 
ATOM     20  H   LIG d   1       9.341   3.257  -2.197  0.00  0.00     0.052 H 
ATOM     21  H   LIG d   1       8.710   4.682  -3.091  0.00  0.00     0.052 H 
ATOM     22  H   LIG d   1      10.955   2.694  -7.322  0.00  0.00     0.065 H 
ATOM     23  H   LIG d   1       9.213   0.979  -7.562  0.00  0.00     0.063 H 
ATOM     24  H   LIG d   1       7.854  -0.334  -7.715  0.00  0.00     0.062 H 
ATOM     25  H   LIG d   1       6.066  -2.017  -7.828  0.00  0.00     0.062 H 
ATOM     26  H   LIG d   1       4.511  -2.313  -5.950  0.00  0.00     0.062 H 
ATOM     27  H   LIG d   1       4.718  -0.931  -3.929  0.00  0.00     0.063 H 
ATOM     28  H   LIG d   1      10.328   5.913  -4.512  0.00  0.00     0.091 H 
ATOM     29  H   LIG d   1      12.077   5.795  -4.120  0.00  0.00     0.091 H 
ENDROOT
BRANCH   1  30
ATOM     30  C   LIG d   1      10.853   5.453  -1.902  0.00  0.00     0.033 A 
ATOM     31  C   LIG d   1      11.710   5.225  -0.834  0.00  0.00    -0.041 A 
ATOM     32  C   LIG d   1      11.753   6.119   0.218  0.00  0.00    -0.060 A 
ATOM     33  H   LIG d   1      12.346   4.351  -0.828  0.00  0.00     0.064 H 
ATOM     34  C   LIG d   1      10.934   7.232   0.214  0.00  0.00    -0.059 A 
ATOM     35  H   LIG d   1      12.423   5.944   1.047  0.00  0.00     0.062 H 
ATOM     36  C   LIG d   1      10.079   7.463  -0.849  0.00  0.00    -0.049 A 
ATOM     37  H   LIG d   1      10.966   7.928   1.040  0.00  0.00     0.062 H 
ATOM     38  C   LIG d   1      10.036   6.576  -1.906  0.00  0.00    -0.038 A 
ATOM     39  H   LIG d   1       9.368   6.756  -2.736  0.00  0.00     0.064 H 
BRANCH  36  40
ATOM     40  C   LIG d   1       9.193   8.682  -0.852  0.00  0.00    -0.040 C 
ATOM     41  H   LIG d   1       8.139   8.370  -0.805  0.00  0.00     0.028 H 
ATOM     42  H   LIG d   1       9.364   9.257  -1.774  0.00  0.00     0.028 H 
ATOM     43  H   LIG d   1       9.429   9.309   0.020  0.00  0.00     0.028 H 
ENDBRANCH  36  40
ENDBRANCH   1  30
TORSDOF 2
ENDMDL
MODEL 9
REMARK VINA RESULT:      -6.4      5.322      7.687
REMARK  2 active torsions:
REMARK  status: ('A' for Active; 'I' for Inactive)
REMARK    1  A    between atoms: C_1  and  C_2 
REMARK    2  A    between atoms: C_6  and  N_8 
ROOT
ATOM      1  N   LIG d   1       9.759   9.265  -1.165  0.00  0.00    -0.293 NA
ATOM      2  C   LIG d   1      10.103   8.990  -2.568  0.00  0.00     0.047 C 
ATOM      3  C   LIG d   1      10.007   7.508  -2.831  0.00  0.00     0.054 A 
ATOM      4  C   LIG d   1       9.996   6.602  -1.786  0.00  0.00     0.131 A 
ATOM      5  C   LIG d   1       9.914   5.235  -2.043  0.00  0.00    -0.019 A 
ATOM      6  C   LIG d   1       9.842   4.776  -3.340  0.00  0.00    -0.047 A 
ATOM      7  C   LIG d   1       9.850   5.683  -4.398  0.00  0.00     0.026 A 
ATOM      8  C   LIG d   1       9.933   7.059  -4.145  0.00  0.00     0.148 A 
ATOM      9  O   LIG d   1       9.941   7.957  -5.157  0.00  0.00    -0.421 OA
ATOM     10  C   LIG d   1       9.874   7.598  -6.449  0.00  0.00     0.345 A 
ATOM     11  O   LIG d   1       9.885   8.452  -7.315  0.00  0.00    -0.244 OA
ATOM     12  C   LIG d   1       9.786   6.180  -6.822  0.00  0.00     0.067 A 
ATOM     13  C   LIG d   1       9.774   5.212  -5.794  0.00  0.00    -0.000 A 
ATOM     14  C   LIG d   1       9.691   3.863  -6.114  0.00  0.00    -0.053 A 
ATOM     15  C   LIG d   1       9.622   3.480  -7.439  0.00  0.00    -0.061 A 
ATOM     16  C   LIG d   1       9.633   4.429  -8.449  0.00  0.00    -0.061 A 
ATOM     17  C   LIG d   1       9.715   5.774  -8.152  0.00  0.00    -0.047 A 
ATOM     18  O   LIG d   1      10.065   7.026  -0.496  0.00  0.00    -0.473 OA
ATOM     19  C   LIG d   1      10.510   8.366  -0.274  0.00  0.00     0.157 C 
ATOM     20  H   LIG d   1       9.406   9.525  -3.228  0.00  0.00     0.052 H 
ATOM     21  H   LIG d   1      11.131   9.331  -2.766  0.00  0.00     0.052 H 
ATOM     22  H   LIG d   1       9.907   4.533  -1.223  0.00  0.00     0.065 H 
ATOM     23  H   LIG d   1       9.778   3.716  -3.535  0.00  0.00     0.063 H 
ATOM     24  H   LIG d   1       9.683   3.119  -5.332  0.00  0.00     0.062 H 
ATOM     25  H   LIG d   1       9.558   2.432  -7.689  0.00  0.00     0.062 H 
ATOM     26  H   LIG d   1       9.578   4.112  -9.481  0.00  0.00     0.062 H 
ATOM     27  H   LIG d   1       9.723   6.505  -8.945  0.00  0.00     0.063 H 
ATOM     28  H   LIG d   1      11.585   8.445  -0.494  0.00  0.00     0.091 H 
ATOM     29  H   LIG d   1      10.329   8.652   0.773  0.00  0.00     0.091 H 
ENDROOT
BRANCH   1  30
ATOM     30  C   LIG d   1       9.998  10.603  -0.844  0.00  0.00     0.033 A 
ATOM     31  C   LIG d   1      10.282  10.965   0.466  0.00  0.00    -0.041 A 
ATOM     32  C   LIG d   1      10.524  12.288   0.779  0.00  0.00    -0.060 A 
ATOM     33  H   LIG d   1      10.319  10.210   1.239  0.00  0.00     0.064 H 
ATOM     34  C   LIG d   1      10.472  13.254  -0.208  0.00  0.00    -0.059 A 
ATOM     35  H   LIG d   1      10.751  12.568   1.797  0.00  0.00     0.062 H 
ATOM     36  C   LIG d   1      10.189  12.897  -1.515  0.00  0.00    -0.049 A 
ATOM     37  H   LIG d   1      10.657  14.288   0.039  0.00  0.00     0.062 H 
ATOM     38  C   LIG d   1       9.951  11.575  -1.835  0.00  0.00    -0.038 A 
ATOM     39  H   LIG d   1       9.730  11.297  -2.855  0.00  0.00     0.064 H 
BRANCH  36  40
ATOM     40  C   LIG d   1      10.138  13.953  -2.589  0.00  0.00    -0.040 C 
ATOM     41  H   LIG d   1      10.354  13.494  -3.565  0.00  0.00     0.028 H 
ATOM     42  H   LIG d   1      10.889  14.729  -2.376  0.00  0.00     0.028 H 
ATOM     43  H   LIG d   1       9.137  14.407  -2.610  0.00  0.00     0.028 H 
ENDBRANCH  36  40
ENDBRANCH   1  30
TORSDOF 2
ENDMDL
