MODEL 1
REMARK VINA RESULT:      -7.2      0.000      0.000
REMARK  6 active torsions:
REMARK  status: ('A' for Active; 'I' for Inactive)
REMARK    1  A    between atoms: C_1  and  C_2 
REMARK    2  A    between atoms: C_12  and  C_13 
REMARK    3  A    between atoms: C_13  and  C_14 
REMARK       I    between atoms: C_14  and  N_16 
REMARK       I    between atoms: N_16  and  CA_17 
REMARK    4  A    between atoms: CA_17  and  CB_19 
REMARK       I    between atoms: CA_17  and  C_23 
REMARK    5  A    between atoms: CB_19  and  CG1_21 
REMARK    6  A    between atoms: CB_19  and  CG2_22 
ROOT
ATOM      1  C   UNK d   0       5.728  -5.648  -6.106  0.00  0.00    -0.029 A 
ATOM      2  C   UNK d   0       6.066  -4.471  -5.298  0.00  0.00     0.022 A 
ATOM      3  C   UNK d   0       5.079  -3.560  -4.924  0.00  0.00    -0.040 A 
ATOM      4  C   UNK d   0       5.427  -2.453  -4.160  0.00  0.00     0.024 A 
ATOM      5  C   UNK d   0       6.767  -2.253  -3.767  0.00  0.00     0.139 A 
ATOM      6  C   UNK d   0       7.741  -3.164  -4.143  0.00  0.00     0.024 A 
ATOM      7  C   UNK d   0       7.407  -4.268  -4.910  0.00  0.00     0.143 A 
ATOM      8  O   UNK d   0       8.361  -5.154  -5.267  0.00  0.00    -0.422 OA
ATOM      9  C   UNK d   0       8.047  -6.224  -6.002  0.00  0.00     0.341 A 
ATOM     10  O   UNK d   0       8.935  -6.999  -6.310  0.00  0.00    -0.245 OA
ATOM     11  C   UNK d   0       6.734  -6.497  -6.437  0.00  0.00     0.049 A 
ATOM     12  O   UNK d   0       6.804  -1.113  -3.044  0.00  0.00    -0.459 OA
ATOM     13  C   UNK d   0       5.581  -0.565  -2.944  0.00  0.00     0.110 A 
ATOM     14  C   UNK d   0       4.687  -1.323  -3.599  0.00  0.00     0.001 A 
ATOM     15  C   UNK d   0       3.215  -1.026  -3.703  0.00  0.00    -0.024 C 
ATOM     16  C   UNK d   0       2.852   0.014  -2.637  0.00  0.00    -0.049 C 
ATOM     17  C   UNK d   0       3.844   1.179  -2.706  0.00  0.00    -0.046 C 
ATOM     18  C   UNK d   0       5.219   0.711  -2.216  0.00  0.00     0.006 C 
ATOM     19  H   UNK d   0       4.053  -3.713  -5.227  0.00  0.00     0.063 H 
ATOM     20  H   UNK d   0       8.767  -3.010  -3.841  0.00  0.00     0.069 H 
ATOM     21  H   UNK d   0       2.992  -0.627  -4.693  0.00  0.00     0.031 H 
ATOM     22  H   UNK d   0       2.644  -1.939  -3.536  0.00  0.00     0.031 H 
ATOM     23  H   UNK d   0       2.900  -0.447  -1.649  0.00  0.00     0.027 H 
ATOM     24  H   UNK d   0       1.843   0.384  -2.816  0.00  0.00     0.027 H 
ATOM     25  H   UNK d   0       3.492   1.994  -2.076  0.00  0.00     0.027 H 
ATOM     26  H   UNK d   0       3.925   1.525  -3.737  0.00  0.00     0.027 H 
ATOM     27  H   UNK d   0       5.181   0.523  -1.144  0.00  0.00     0.034 H 
ATOM     28  H   UNK d   0       5.964   1.478  -2.430  0.00  0.00     0.034 H 
ENDROOT
BRANCH  11  29
ATOM     29  C   UNK d   0       6.449  -7.723  -7.265  0.00  0.00     0.056 C 
ATOM     30  H   UNK d   0       5.563  -7.551  -7.876  0.00  0.00     0.041 H 
ATOM     31  H   UNK d   0       7.302  -7.930  -7.912  0.00  0.00     0.041 H 
BRANCH  29  32
ATOM     32  C   UNK d   0       6.211  -8.900  -6.355  0.00  0.00     0.218 C 
ATOM     33  O   UNK d   0       5.849  -9.961  -6.818  0.00  0.00    -0.275 OA
ATOM     34  N   VAL d   1       6.400  -8.775  -5.027  0.00  0.00    -0.307 N 
ATOM     35  CA  VAL d   1       6.168  -9.919  -4.142  0.00  0.00     0.065 C 
ATOM     36  H   VAL d   1       6.690  -7.926  -4.655  0.00  0.00     0.149 HD
ATOM     37  HA  VAL d   1       6.460 -10.837  -4.652  0.00  0.00     0.056 H 
ATOM     38  C   VAL d   1       4.707  -9.988  -3.782  0.00  0.00     0.062 C 
ATOM     39  O   VAL d   1       3.937  -9.164  -4.219  0.00  0.00    -0.548 OA
ATOM     40  OXT VAL d   1       4.259 -10.964  -2.975  0.00  0.00    -0.548 OA
BRANCH  35  41
ATOM     41  CB  VAL d   1       7.001  -9.757  -2.868  0.00  0.00    -0.023 C 
ATOM     42  HB  VAL d   1       6.344  -9.505  -2.036  0.00  0.00     0.032 H 
BRANCH  41  43
ATOM     43  CG1 VAL d   1       8.025  -8.638  -3.068  0.00  0.00    -0.061 C 
ATOM     44 1HG1 VAL d   1       8.829  -8.746  -2.342  0.00  0.00     0.023 H 
ATOM     45 2HG1 VAL d   1       8.434  -8.696  -4.077  0.00  0.00     0.023 H 
ATOM     46 3HG1 VAL d   1       7.538  -7.672  -2.930  0.00  0.00     0.023 H 
ENDBRANCH  41  43
BRANCH  41  47
ATOM     47  CG2 VAL d   1       7.729 -11.067  -2.565  0.00  0.00    -0.061 C 
ATOM     48 1HG2 VAL d   1       7.848 -11.638  -3.485  0.00  0.00     0.023 H 
ATOM     49 2HG2 VAL d   1       8.711 -10.847  -2.145  0.00  0.00     0.023 H 
ATOM     50 3HG2 VAL d   1       7.149 -11.648  -1.849  0.00  0.00     0.023 H 
ENDBRANCH  41  47
ENDBRANCH  35  41
ENDBRANCH  29  32
ENDBRANCH  11  29
BRANCH   1  51
ATOM     51  C   UNK d   0       4.312  -5.905  -6.552  0.00  0.00    -0.038 C 
ATOM     52  H   UNK d   0       4.172  -5.516  -7.561  0.00  0.00     0.028 H 
ATOM     53  H   UNK d   0       4.119  -6.978  -6.547  0.00  0.00     0.028 H 
ATOM     54  H   UNK d   0       3.620  -5.408  -5.872  0.00  0.00     0.028 H 
ENDBRANCH   1  51
TORSDOF 8
ENDMDL
MODEL 2
REMARK VINA RESULT:      -7.0      1.437      2.021
REMARK  6 active torsions:
REMARK  status: ('A' for Active; 'I' for Inactive)
REMARK    1  A    between atoms: C_1  and  C_2 
REMARK    2  A    between atoms: C_12  and  C_13 
REMARK    3  A    between atoms: C_13  and  C_14 
REMARK       I    between atoms: C_14  and  N_16 
REMARK       I    between atoms: N_16  and  CA_17 
REMARK    4  A    between atoms: CA_17  and  CB_19 
REMARK       I    between atoms: CA_17  and  C_23 
REMARK    5  A    between atoms: CB_19  and  CG1_21 
REMARK    6  A    between atoms: CB_19  and  CG2_22 
ROOT
ATOM      1  C   UNK d   0       6.129  -5.595  -5.482  0.00  0.00    -0.029 A 
ATOM      2  C   UNK d   0       6.424  -4.251  -4.974  0.00  0.00     0.022 A 
ATOM      3  C   UNK d   0       5.395  -3.416  -4.538  0.00  0.00    -0.040 A 
ATOM      4  C   UNK d   0       5.702  -2.148  -4.062  0.00  0.00     0.024 A 
ATOM      5  C   UNK d   0       7.042  -1.708  -4.022  0.00  0.00     0.139 A 
ATOM      6  C   UNK d   0       8.057  -2.544  -4.458  0.00  0.00     0.024 A 
ATOM      7  C   UNK d   0       7.762  -3.809  -4.940  0.00  0.00     0.143 A 
ATOM      8  O   UNK d   0       8.758  -4.619  -5.357  0.00  0.00    -0.422 OA
ATOM      9  C   UNK d   0       8.484  -5.843  -5.819  0.00  0.00     0.341 A 
ATOM     10  O   UNK d   0       9.407  -6.544  -6.191  0.00  0.00    -0.245 OA
ATOM     11  C   UNK d   0       7.174  -6.358  -5.893  0.00  0.00     0.049 A 
ATOM     12  O   UNK d   0       7.034  -0.454  -3.520  0.00  0.00    -0.459 OA
ATOM     13  C   UNK d   0       5.784  -0.055  -3.235  0.00  0.00     0.110 A 
ATOM     14  C   UNK d   0       4.914  -1.033  -3.537  0.00  0.00     0.001 A 
ATOM     15  C   UNK d   0       3.422  -0.950  -3.350  0.00  0.00    -0.024 C 
ATOM     16  C   UNK d   0       3.115   0.222  -2.411  0.00  0.00    -0.049 C 
ATOM     17  C   UNK d   0       3.866   1.467  -2.892  0.00  0.00    -0.046 C 
ATOM     18  C   UNK d   0       5.370   1.281  -2.660  0.00  0.00     0.006 C 
ATOM     19  H   UNK d   0       4.369  -3.753  -4.569  0.00  0.00     0.063 H 
ATOM     20  H   UNK d   0       9.083  -2.206  -4.427  0.00  0.00     0.069 H 
ATOM     21  H   UNK d   0       2.941  -0.782  -4.313  0.00  0.00     0.031 H 
ATOM     22  H   UNK d   0       3.056  -1.878  -2.911  0.00  0.00     0.031 H 
ATOM     23  H   UNK d   0       3.437  -0.028  -1.399  0.00  0.00     0.027 H 
ATOM     24  H   UNK d   0       2.043   0.421  -2.413  0.00  0.00     0.027 H 
ATOM     25  H   UNK d   0       3.518   2.339  -2.338  0.00  0.00     0.027 H 
ATOM     26  H   UNK d   0       3.679   1.615  -3.957  0.00  0.00     0.027 H 
ATOM     27  H   UNK d   0       5.580   1.300  -1.591  0.00  0.00     0.034 H 
ATOM     28  H   UNK d   0       5.919   2.080  -3.158  0.00  0.00     0.034 H 
ENDROOT
BRANCH  11  29
ATOM     29  C   UNK d   0       6.935  -7.747  -6.425  0.00  0.00     0.056 C 
ATOM     30  H   UNK d   0       5.983  -7.775  -6.954  0.00  0.00     0.041 H 
ATOM     31  H   UNK d   0       7.739  -8.017  -7.110  0.00  0.00     0.041 H 
BRANCH  29  32
ATOM     32  C   UNK d   0       6.902  -8.725  -5.279  0.00  0.00     0.218 C 
ATOM     33  O   UNK d   0       7.708  -8.632  -4.378  0.00  0.00    -0.275 OA
ATOM     34  N   VAL d   1       5.977  -9.705  -5.256  0.00  0.00    -0.307 N 
ATOM     35  CA  VAL d   1       5.945 -10.657  -4.143  0.00  0.00     0.065 C 
ATOM     36  H   VAL d   1       5.331  -9.780  -5.977  0.00  0.00     0.149 HD
ATOM     37  HA  VAL d   1       6.224 -10.147  -3.221  0.00  0.00     0.056 H 
ATOM     38  C   VAL d   1       6.915 -11.777  -4.410  0.00  0.00     0.062 C 
ATOM     39  O   VAL d   1       7.567 -11.781  -5.429  0.00  0.00    -0.548 OA
ATOM     40  OXT VAL d   1       7.056 -12.772  -3.519  0.00  0.00    -0.548 OA
BRANCH  35  41
ATOM     41  CB  VAL d   1       4.532 -11.228  -4.000  0.00  0.00    -0.023 C 
ATOM     42  HB  VAL d   1       4.570 -12.147  -3.416  0.00  0.00     0.032 H 
BRANCH  41  43
ATOM     43  CG1 VAL d   1       3.962 -11.528  -5.388  0.00  0.00    -0.061 C 
ATOM     44 1HG1 VAL d   1       3.202 -10.788  -5.637  0.00  0.00     0.023 H 
ATOM     45 2HG1 VAL d   1       4.763 -11.489  -6.126  0.00  0.00     0.023 H 
ATOM     46 3HG1 VAL d   1       3.515 -12.522  -5.390  0.00  0.00     0.023 H 
ENDBRANCH  41  43
BRANCH  41  47
ATOM     47  CG2 VAL d   1       3.639 -10.209  -3.292  0.00  0.00    -0.061 C 
ATOM     48 1HG2 VAL d   1       2.715 -10.692  -2.974  0.00  0.00     0.023 H 
ATOM     49 2HG2 VAL d   1       4.160  -9.814  -2.419  0.00  0.00     0.023 H 
ATOM     50 3HG2 VAL d   1       3.405  -9.393  -3.975  0.00  0.00     0.023 H 
ENDBRANCH  41  47
ENDBRANCH  35  41
ENDBRANCH  29  32
ENDBRANCH  11  29
BRANCH   1  51
ATOM     51  C   UNK d   0       4.715  -6.110  -5.547  0.00  0.00    -0.038 C 
ATOM     52  H   UNK d   0       4.023  -5.309  -5.285  0.00  0.00     0.028 H 
ATOM     53  H   UNK d   0       4.501  -6.458  -6.558  0.00  0.00     0.028 H 
ATOM     54  H   UNK d   0       4.596  -6.937  -4.847  0.00  0.00     0.028 H 
ENDBRANCH   1  51
TORSDOF 8
ENDMDL
MODEL 3
REMARK VINA RESULT:      -7.0      5.194      8.951
REMARK  6 active torsions:
REMARK  status: ('A' for Active; 'I' for Inactive)
REMARK    1  A    between atoms: C_1  and  C_2 
REMARK    2  A    between atoms: C_12  and  C_13 
REMARK    3  A    between atoms: C_13  and  C_14 
REMARK       I    between atoms: C_14  and  N_16 
REMARK       I    between atoms: N_16  and  CA_17 
REMARK    4  A    between atoms: CA_17  and  CB_19 
REMARK       I    between atoms: CA_17  and  C_23 
REMARK    5  A    between atoms: CB_19  and  CG1_21 
REMARK    6  A    between atoms: CB_19  and  CG2_22 
ROOT
ATOM      1  C   UNK d   0       4.748  -2.139  -8.147  0.00  0.00    -0.029 A 
ATOM      2  C   UNK d   0       3.552  -2.507  -8.910  0.00  0.00     0.022 A 
ATOM      3  C   UNK d   0       3.291  -3.841  -9.222  0.00  0.00    -0.040 A 
ATOM      4  C   UNK d   0       2.151  -4.161  -9.947  0.00  0.00     0.024 A 
ATOM      5  C   UNK d   0       1.264  -3.146 -10.365  0.00  0.00     0.139 A 
ATOM      6  C   UNK d   0       1.532  -1.823 -10.050  0.00  0.00     0.024 A 
ATOM      7  C   UNK d   0       2.669  -1.491  -9.333  0.00  0.00     0.143 A 
ATOM      8  O   UNK d   0       2.918  -0.201  -9.026  0.00  0.00    -0.422 OA
ATOM      9  C   UNK d   0       4.010   0.129  -8.329  0.00  0.00     0.341 A 
ATOM     10  O   UNK d   0       4.205   1.304  -8.075  0.00  0.00    -0.245 OA
ATOM     11  C   UNK d   0       4.945  -0.823  -7.875  0.00  0.00     0.049 A 
ATOM     12  O   UNK d   0       0.261  -3.747 -11.040  0.00  0.00    -0.459 OA
ATOM     13  C   UNK d   0       0.439  -5.078 -11.087  0.00  0.00     0.110 A 
ATOM     14  C   UNK d   0       1.569  -5.409 -10.442  0.00  0.00     0.001 A 
ATOM     15  C   UNK d   0       2.094  -6.811 -10.284  0.00  0.00    -0.024 C 
ATOM     16  C   UNK d   0       0.961  -7.793 -10.605  0.00  0.00    -0.049 C 
ATOM     17  C   UNK d   0       0.308  -7.397 -11.933  0.00  0.00    -0.046 C 
ATOM     18  C   UNK d   0      -0.469  -6.088 -11.752  0.00  0.00     0.006 C 
ATOM     19  H   UNK d   0       3.971  -4.617  -8.903  0.00  0.00     0.063 H 
ATOM     20  H   UNK d   0       0.852  -1.047 -10.371  0.00  0.00     0.069 H 
ATOM     21  H   UNK d   0       2.922  -6.972 -10.975  0.00  0.00     0.031 H 
ATOM     22  H   UNK d   0       2.433  -6.962  -9.260  0.00  0.00     0.031 H 
ATOM     23  H   UNK d   0       0.216  -7.760  -9.809  0.00  0.00     0.027 H 
ATOM     24  H   UNK d   0       1.364  -8.802 -10.684  0.00  0.00     0.027 H 
ATOM     25  H   UNK d   0      -0.375  -8.184 -12.250  0.00  0.00     0.027 H 
ATOM     26  H   UNK d   0       1.081  -7.259 -12.690  0.00  0.00     0.027 H 
ATOM     27  H   UNK d   0      -1.342  -6.265 -11.125  0.00  0.00     0.034 H 
ATOM     28  H   UNK d   0      -0.784  -5.713 -12.725  0.00  0.00     0.034 H 
ENDROOT
BRANCH  11  29
ATOM     29  C   UNK d   0       6.156  -0.383  -7.095  0.00  0.00     0.056 C 
ATOM     30  H   UNK d   0       7.013  -0.994  -7.379  0.00  0.00     0.041 H 
ATOM     31  H   UNK d   0       6.369   0.664  -7.314  0.00  0.00     0.041 H 
BRANCH  29  32
ATOM     32  C   UNK d   0       5.890  -0.543  -5.621  0.00  0.00     0.218 C 
ATOM     33  O   UNK d   0       6.793  -0.850  -4.872  0.00  0.00    -0.275 OA
ATOM     34  N   VAL d   1       4.649  -0.346  -5.134  0.00  0.00    -0.307 N 
ATOM     35  CA  VAL d   1       4.391  -0.502  -3.701  0.00  0.00     0.065 C 
ATOM     36  H   VAL d   1       3.926  -0.099  -5.733  0.00  0.00     0.149 HD
ATOM     37  HA  VAL d   1       5.260  -0.165  -3.136  0.00  0.00     0.056 H 
ATOM     38  C   VAL d   1       4.124  -1.953  -3.393  0.00  0.00     0.062 C 
ATOM     39  O   VAL d   1       4.147  -2.773  -4.281  0.00  0.00    -0.548 OA
ATOM     40  OXT VAL d   1       3.861  -2.335  -2.133  0.00  0.00    -0.548 OA
BRANCH  35  41
ATOM     41  CB  VAL d   1       3.171   0.335  -3.307  0.00  0.00    -0.023 C 
ATOM     42  HB  VAL d   1       2.477  -0.281  -2.737  0.00  0.00     0.032 H 
BRANCH  41  43
ATOM     43  CG1 VAL d   1       2.478   0.849  -4.571  0.00  0.00    -0.061 C 
ATOM     44 1HG1 VAL d   1       3.217   1.301  -5.233  0.00  0.00     0.023 H 
ATOM     45 2HG1 VAL d   1       1.991   0.019  -5.082  0.00  0.00     0.023 H 
ATOM     46 3HG1 VAL d   1       1.732   1.596  -4.297  0.00  0.00     0.023 H 
ENDBRANCH  41  43
BRANCH  41  47
ATOM     47  CG2 VAL d   1       3.622   1.522  -2.454  0.00  0.00    -0.061 C 
ATOM     48 1HG2 VAL d   1       3.861   1.177  -1.448  0.00  0.00     0.023 H 
ATOM     49 2HG2 VAL d   1       4.506   1.976  -2.902  0.00  0.00     0.023 H 
ATOM     50 3HG2 VAL d   1       2.820   2.258  -2.404  0.00  0.00     0.023 H 
ENDBRANCH  41  47
ENDBRANCH  35  41
ENDBRANCH  29  32
ENDBRANCH  11  29
BRANCH   1  51
ATOM     51  C   UNK d   0       5.726  -3.185  -7.680  0.00  0.00    -0.038 C 
ATOM     52  H   UNK d   0       5.181  -4.054  -7.310  0.00  0.00     0.028 H 
ATOM     53  H   UNK d   0       6.363  -3.485  -8.513  0.00  0.00     0.028 H 
ATOM     54  H   UNK d   0       6.344  -2.776  -6.880  0.00  0.00     0.028 H 
ENDBRANCH   1  51
TORSDOF 8
ENDMDL
MODEL 4
REMARK VINA RESULT:      -7.0      2.557      8.233
REMARK  6 active torsions:
REMARK  status: ('A' for Active; 'I' for Inactive)
REMARK    1  A    between atoms: C_1  and  C_2 
REMARK    2  A    between atoms: C_12  and  C_13 
REMARK    3  A    between atoms: C_13  and  C_14 
REMARK       I    between atoms: C_14  and  N_16 
REMARK       I    between atoms: N_16  and  CA_17 
REMARK    4  A    between atoms: CA_17  and  CB_19 
REMARK       I    between atoms: CA_17  and  C_23 
REMARK    5  A    between atoms: CB_19  and  CG1_21 
REMARK    6  A    between atoms: CB_19  and  CG2_22 
ROOT
ATOM      1  C   UNK d   0       6.769  -4.062  -5.827  0.00  0.00    -0.029 A 
ATOM      2  C   UNK d   0       6.067  -5.318  -6.111  0.00  0.00     0.022 A 
ATOM      3  C   UNK d   0       6.286  -6.448  -5.323  0.00  0.00    -0.040 A 
ATOM      4  C   UNK d   0       5.608  -7.624  -5.615  0.00  0.00     0.024 A 
ATOM      5  C   UNK d   0       4.706  -7.676  -6.698  0.00  0.00     0.139 A 
ATOM      6  C   UNK d   0       4.494  -6.548  -7.475  0.00  0.00     0.024 A 
ATOM      7  C   UNK d   0       5.169  -5.370  -7.197  0.00  0.00     0.143 A 
ATOM      8  O   UNK d   0       4.952  -4.276  -7.956  0.00  0.00    -0.422 OA
ATOM      9  C   UNK d   0       5.594  -3.134  -7.693  0.00  0.00     0.341 A 
ATOM     10  O   UNK d   0       5.378  -2.167  -8.401  0.00  0.00    -0.245 OA
ATOM     11  C   UNK d   0       6.512  -2.999  -6.630  0.00  0.00     0.049 A 
ATOM     12  O   UNK d   0       4.204  -8.929  -6.739  0.00  0.00    -0.459 OA
ATOM     13  C   UNK d   0       4.719  -9.688  -5.758  0.00  0.00     0.110 A 
ATOM     14  C   UNK d   0       5.584  -8.964  -5.029  0.00  0.00     0.001 A 
ATOM     15  C   UNK d   0       6.355  -9.479  -3.842  0.00  0.00    -0.024 C 
ATOM     16  C   UNK d   0       5.706 -10.785  -3.370  0.00  0.00    -0.049 C 
ATOM     17  C   UNK d   0       5.500 -11.712  -4.572  0.00  0.00    -0.046 C 
ATOM     18  C   UNK d   0       4.404 -11.141  -5.478  0.00  0.00     0.006 C 
ATOM     19  H   UNK d   0       6.978  -6.408  -4.495  0.00  0.00     0.063 H 
ATOM     20  H   UNK d   0       3.803  -6.589  -8.304  0.00  0.00     0.069 H 
ATOM     21  H   UNK d   0       7.389  -9.669  -4.132  0.00  0.00     0.031 H 
ATOM     22  H   UNK d   0       6.326  -8.743  -3.040  0.00  0.00     0.031 H 
ATOM     23  H   UNK d   0       4.741 -10.565  -2.910  0.00  0.00     0.027 H 
ATOM     24  H   UNK d   0       6.353 -11.272  -2.641  0.00  0.00     0.027 H 
ATOM     25  H   UNK d   0       5.204 -12.700  -4.221  0.00  0.00     0.027 H 
ATOM     26  H   UNK d   0       6.432 -11.790  -5.133  0.00  0.00     0.027 H 
ATOM     27  H   UNK d   0       3.439 -11.216  -4.978  0.00  0.00     0.034 H 
ATOM     28  H   UNK d   0       4.379 -11.697  -6.415  0.00  0.00     0.034 H 
ENDROOT
BRANCH  11  29
ATOM     29  C   UNK d   0       7.203  -1.682  -6.389  0.00  0.00     0.056 C 
ATOM     30  H   UNK d   0       8.099  -1.846  -5.791  0.00  0.00     0.041 H 
ATOM     31  H   UNK d   0       7.481  -1.237  -7.345  0.00  0.00     0.041 H 
BRANCH  29  32
ATOM     32  C   UNK d   0       6.272  -0.752  -5.656  0.00  0.00     0.218 C 
ATOM     33  O   UNK d   0       5.973   0.317  -6.144  0.00  0.00    -0.275 OA
ATOM     34  N   VAL d   1       5.771  -1.108  -4.456  0.00  0.00    -0.307 N 
ATOM     35  CA  VAL d   1       4.866  -0.204  -3.742  0.00  0.00     0.065 C 
ATOM     36  H   VAL d   1       6.009  -1.964  -4.065  0.00  0.00     0.149 HD
ATOM     37  HA  VAL d   1       4.240   0.326  -4.461  0.00  0.00     0.056 H 
ATOM     38  C   VAL d   1       5.671   0.792  -2.949  0.00  0.00     0.062 C 
ATOM     39  O   VAL d   1       6.880   0.749  -2.976  0.00  0.00    -0.548 OA
ATOM     40  OXT VAL d   1       5.049   1.725  -2.211  0.00  0.00    -0.548 OA
BRANCH  35  41
ATOM     41  CB  VAL d   1       3.978  -1.014  -2.794  0.00  0.00    -0.023 C 
ATOM     42  HB  VAL d   1       4.208  -0.744  -1.763  0.00  0.00     0.032 H 
BRANCH  41  43
ATOM     43  CG1 VAL d   1       4.241  -2.507  -3.001  0.00  0.00    -0.061 C 
ATOM     44 1HG1 VAL d   1       3.507  -3.087  -2.443  0.00  0.00     0.023 H 
ATOM     45 2HG1 VAL d   1       4.162  -2.745  -4.062  0.00  0.00     0.023 H 
ATOM     46 3HG1 VAL d   1       5.242  -2.752  -2.647  0.00  0.00     0.023 H 
ENDBRANCH  41  43
BRANCH  41  47
ATOM     47  CG2 VAL d   1       2.508  -0.709  -3.086  0.00  0.00    -0.061 C 
ATOM     48 1HG2 VAL d   1       2.435  -0.109  -3.993  0.00  0.00     0.023 H 
ATOM     49 2HG2 VAL d   1       1.964  -1.643  -3.225  0.00  0.00     0.023 H 
ATOM     50 3HG2 VAL d   1       2.078  -0.158  -2.250  0.00  0.00     0.023 H 
ENDBRANCH  41  47
ENDBRANCH  35  41
ENDBRANCH  29  32
ENDBRANCH  11  29
BRANCH   1  51
ATOM     51  C   UNK d   0       7.744  -3.957  -4.683  0.00  0.00    -0.038 C 
ATOM     52  H   UNK d   0       8.695  -3.571  -5.049  0.00  0.00     0.028 H 
ATOM     53  H   UNK d   0       7.345  -3.279  -3.927  0.00  0.00     0.028 H 
ATOM     54  H   UNK d   0       7.896  -4.942  -4.242  0.00  0.00     0.028 H 
ENDBRANCH   1  51
TORSDOF 8
ENDMDL
MODEL 5
REMARK VINA RESULT:      -6.9      7.268     11.747
REMARK  6 active torsions:
REMARK  status: ('A' for Active; 'I' for Inactive)
REMARK    1  A    between atoms: C_1  and  C_2 
REMARK    2  A    between atoms: C_12  and  C_13 
REMARK    3  A    between atoms: C_13  and  C_14 
REMARK       I    between atoms: C_14  and  N_16 
REMARK       I    between atoms: N_16  and  CA_17 
REMARK    4  A    between atoms: CA_17  and  CB_19 
REMARK       I    between atoms: CA_17  and  C_23 
REMARK    5  A    between atoms: CB_19  and  CG1_21 
REMARK    6  A    between atoms: CB_19  and  CG2_22 
ROOT
ATOM      1  C   UNK d   0       9.824   3.603  -4.735  0.00  0.00    -0.029 A 
ATOM      2  C   UNK d   0       9.010   2.387  -4.838  0.00  0.00     0.022 A 
ATOM      3  C   UNK d   0       7.952   2.165  -3.957  0.00  0.00    -0.040 A 
ATOM      4  C   UNK d   0       7.198   1.005  -4.077  0.00  0.00     0.024 A 
ATOM      5  C   UNK d   0       7.500   0.060  -5.080  0.00  0.00     0.139 A 
ATOM      6  C   UNK d   0       8.553   0.290  -5.951  0.00  0.00     0.024 A 
ATOM      7  C   UNK d   0       9.317   1.441  -5.837  0.00  0.00     0.143 A 
ATOM      8  O   UNK d   0      10.336   1.659  -6.694  0.00  0.00    -0.422 OA
ATOM      9  C   UNK d   0      11.075   2.768  -6.595  0.00  0.00     0.341 A 
ATOM     10  O   UNK d   0      11.990   2.929  -7.382  0.00  0.00    -0.245 OA
ATOM     11  C   UNK d   0      10.840   3.760  -5.622  0.00  0.00     0.049 A 
ATOM     12  O   UNK d   0       6.612  -0.950  -4.957  0.00  0.00    -0.459 OA
ATOM     13  C   UNK d   0       5.759  -0.722  -3.944  0.00  0.00     0.110 A 
ATOM     14  C   UNK d   0       6.051   0.450  -3.358  0.00  0.00     0.001 A 
ATOM     15  C   UNK d   0       5.308   1.040  -2.188  0.00  0.00    -0.024 C 
ATOM     16  C   UNK d   0       3.965   0.313  -2.050  0.00  0.00    -0.049 C 
ATOM     17  C   UNK d   0       4.202  -1.200  -2.084  0.00  0.00    -0.046 C 
ATOM     18  C   UNK d   0       4.628  -1.620  -3.495  0.00  0.00     0.006 C 
ATOM     19  H   UNK d   0       7.722   2.888  -3.189  0.00  0.00     0.063 H 
ATOM     20  H   UNK d   0       8.784  -0.434  -6.719  0.00  0.00     0.069 H 
ATOM     21  H   UNK d   0       5.893   0.904  -1.278  0.00  0.00     0.031 H 
ATOM     22  H   UNK d   0       5.136   2.101  -2.361  0.00  0.00     0.031 H 
ATOM     23  H   UNK d   0       3.311   0.598  -2.875  0.00  0.00     0.027 H 
ATOM     24  H   UNK d   0       3.498   0.587  -1.104  0.00  0.00     0.027 H 
ATOM     25  H   UNK d   0       3.283  -1.717  -1.812  0.00  0.00     0.027 H 
ATOM     26  H   UNK d   0       4.988  -1.460  -1.374  0.00  0.00     0.027 H 
ATOM     27  H   UNK d   0       3.786  -1.517  -4.178  0.00  0.00     0.034 H 
ATOM     28  H   UNK d   0       4.967  -2.656  -3.481  0.00  0.00     0.034 H 
ENDROOT
BRANCH  11  29
ATOM     29  C   UNK d   0      11.712   4.988  -5.566  0.00  0.00     0.056 C 
ATOM     30  H   UNK d   0      11.561   5.497  -4.614  0.00  0.00     0.041 H 
ATOM     31  H   UNK d   0      12.758   4.695  -5.660  0.00  0.00     0.041 H 
BRANCH  29  32
ATOM     32  C   UNK d   0      11.347   5.916  -6.695  0.00  0.00     0.218 C 
ATOM     33  O   UNK d   0      12.119   6.785  -7.040  0.00  0.00    -0.275 OA
ATOM     34  N   VAL d   1      10.162   5.780  -7.323  0.00  0.00    -0.307 N 
ATOM     35  CA  VAL d   1       9.807   6.683  -8.421  0.00  0.00     0.065 C 
ATOM     36  H   VAL d   1       9.543   5.085  -7.048  0.00  0.00     0.149 HD
ATOM     37  HA  VAL d   1      10.702   6.932  -8.990  0.00  0.00     0.056 H 
ATOM     38  C   VAL d   1       9.202   7.944  -7.860  0.00  0.00     0.062 C 
ATOM     39  O   VAL d   1       9.079   8.075  -6.664  0.00  0.00    -0.548 OA
ATOM     40  OXT VAL d   1       8.799   8.921  -8.687  0.00  0.00    -0.548 OA
BRANCH  35  41
ATOM     41  CB  VAL d   1       8.793   5.996  -9.339  0.00  0.00    -0.023 C 
ATOM     42  HB  VAL d   1       7.799   6.401  -9.150  0.00  0.00     0.032 H 
BRANCH  41  43
ATOM     43  CG1 VAL d   1       8.793   4.491  -9.062  0.00  0.00    -0.061 C 
ATOM     44 1HG1 VAL d   1       9.778   4.186  -8.710  0.00  0.00     0.023 H 
ATOM     45 2HG1 VAL d   1       8.048   4.262  -8.301  0.00  0.00     0.023 H 
ATOM     46 3HG1 VAL d   1       8.553   3.953  -9.979  0.00  0.00     0.023 H 
ENDBRANCH  41  43
BRANCH  41  47
ATOM     47  CG2 VAL d   1       9.177   6.246 -10.799  0.00  0.00    -0.061 C 
ATOM     48 1HG2 VAL d   1       9.523   7.273 -10.913  0.00  0.00     0.023 H 
ATOM     49 2HG2 VAL d   1       9.973   5.560 -11.087  0.00  0.00     0.023 H 
ATOM     50 3HG2 VAL d   1       8.308   6.083 -11.436  0.00  0.00     0.023 H 
ENDBRANCH  41  47
ENDBRANCH  35  41
ENDBRANCH  29  32
ENDBRANCH  11  29
BRANCH   1  51
ATOM     51  C   UNK d   0       9.543   4.641  -3.680  0.00  0.00    -0.038 C 
ATOM     52  H   UNK d   0       8.689   4.327  -3.079  0.00  0.00     0.028 H 
ATOM     53  H   UNK d   0      10.417   4.751  -3.037  0.00  0.00     0.028 H 
ATOM     54  H   UNK d   0       9.321   5.595  -4.158  0.00  0.00     0.028 H 
ENDBRANCH   1  51
TORSDOF 8
ENDMDL
MODEL 6
REMARK VINA RESULT:      -6.9      6.376      8.397
REMARK  6 active torsions:
REMARK  status: ('A' for Active; 'I' for Inactive)
REMARK    1  A    between atoms: C_1  and  C_2 
REMARK    2  A    between atoms: C_12  and  C_13 
REMARK    3  A    between atoms: C_13  and  C_14 
REMARK       I    between atoms: C_14  and  N_16 
REMARK       I    between atoms: N_16  and  CA_17 
REMARK    4  A    between atoms: CA_17  and  CB_19 
REMARK       I    between atoms: CA_17  and  C_23 
REMARK    5  A    between atoms: CB_19  and  CG1_21 
REMARK    6  A    between atoms: CB_19  and  CG2_22 
ROOT
ATOM      1  C   UNK d   0       3.232  -0.394  -9.269  0.00  0.00    -0.029 A 
ATOM      2  C   UNK d   0       3.660  -0.903  -7.962  0.00  0.00     0.022 A 
ATOM      3  C   UNK d   0       3.552  -0.108  -6.822  0.00  0.00    -0.040 A 
ATOM      4  C   UNK d   0       3.966  -0.614  -5.596  0.00  0.00     0.024 A 
ATOM      5  C   UNK d   0       4.493  -1.920  -5.507  0.00  0.00     0.139 A 
ATOM      6  C   UNK d   0       4.597  -2.702  -6.646  0.00  0.00     0.024 A 
ATOM      7  C   UNK d   0       4.192  -2.206  -7.875  0.00  0.00     0.143 A 
ATOM      8  O   UNK d   0       4.292  -2.977  -8.978  0.00  0.00    -0.422 OA
ATOM      9  C   UNK d   0       3.900  -2.509 -10.166  0.00  0.00     0.341 A 
ATOM     10  O   UNK d   0       4.009  -3.231 -11.141  0.00  0.00    -0.245 OA
ATOM     11  C   UNK d   0       3.364  -1.217 -10.341  0.00  0.00     0.049 A 
ATOM     12  O   UNK d   0       4.805  -2.136  -4.211  0.00  0.00    -0.459 OA
ATOM     13  C   UNK d   0       4.518  -1.060  -3.459  0.00  0.00     0.110 A 
ATOM     14  C   UNK d   0       4.002  -0.090  -4.231  0.00  0.00     0.001 A 
ATOM     15  C   UNK d   0       3.557   1.262  -3.738  0.00  0.00    -0.024 C 
ATOM     16  C   UNK d   0       3.409   1.198  -2.213  0.00  0.00    -0.049 C 
ATOM     17  C   UNK d   0       4.669   0.572  -1.608  0.00  0.00    -0.046 C 
ATOM     18  C   UNK d   0       4.726  -0.917  -1.968  0.00  0.00     0.006 C 
ATOM     19  H   UNK d   0       3.150   0.892  -6.890  0.00  0.00     0.063 H 
ATOM     20  H   UNK d   0       5.000  -3.702  -6.576  0.00  0.00     0.069 H 
ATOM     21  H   UNK d   0       4.304   2.011  -4.001  0.00  0.00     0.031 H 
ATOM     22  H   UNK d   0       2.600   1.520  -4.189  0.00  0.00     0.031 H 
ATOM     23  H   UNK d   0       2.541   0.589  -1.957  0.00  0.00     0.027 H 
ATOM     24  H   UNK d   0       3.277   2.204  -1.817  0.00  0.00     0.027 H 
ATOM     25  H   UNK d   0       4.645   0.683  -0.524  0.00  0.00     0.027 H 
ATOM     26  H   UNK d   0       5.551   1.075  -2.005  0.00  0.00     0.027 H 
ATOM     27  H   UNK d   0       3.940  -1.453  -1.436  0.00  0.00     0.034 H 
ATOM     28  H   UNK d   0       5.700  -1.323  -1.694  0.00  0.00     0.034 H 
ENDROOT
BRANCH  11  29
ATOM     29  C   UNK d   0       2.942  -0.752 -11.710  0.00  0.00     0.056 C 
ATOM     30  H   UNK d   0       2.886   0.337 -11.723  0.00  0.00     0.041 H 
ATOM     31  H   UNK d   0       3.670  -1.086 -12.449  0.00  0.00     0.041 H 
BRANCH  29  32
ATOM     32  C   UNK d   0       1.590  -1.327 -12.043  0.00  0.00     0.218 C 
ATOM     33  O   UNK d   0       0.586  -0.816 -11.594  0.00  0.00    -0.275 OA
ATOM     34  N   VAL d   1       1.495  -2.411 -12.838  0.00  0.00    -0.307 N 
ATOM     35  CA  VAL d   1       0.181  -2.971 -13.161  0.00  0.00     0.065 C 
ATOM     36  H   VAL d   1       2.299  -2.821 -13.198  0.00  0.00     0.149 HD
ATOM     37  HA  VAL d   1      -0.546  -2.165 -13.248  0.00  0.00     0.056 H 
ATOM     38  C   VAL d   1      -0.246  -3.916 -12.067  0.00  0.00     0.062 C 
ATOM     39  O   VAL d   1       0.476  -4.103 -11.115  0.00  0.00    -0.548 OA
ATOM     40  OXT VAL d   1      -1.426  -4.550 -12.150  0.00  0.00    -0.548 OA
BRANCH  35  41
ATOM     41  CB  VAL d   1       0.261  -3.730 -14.488  0.00  0.00    -0.023 C 
ATOM     42  HB  VAL d   1      -0.619  -4.364 -14.597  0.00  0.00     0.032 H 
BRANCH  41  43
ATOM     43  CG1 VAL d   1       1.521  -4.598 -14.502  0.00  0.00    -0.061 C 
ATOM     44 1HG1 VAL d   1       1.806  -4.810 -15.533  0.00  0.00     0.023 H 
ATOM     45 2HG1 VAL d   1       2.332  -4.070 -14.001  0.00  0.00     0.023 H 
ATOM     46 3HG1 VAL d   1       1.322  -5.535 -13.982  0.00  0.00     0.023 H 
ENDBRANCH  41  43
BRANCH  41  47
ATOM     47  CG2 VAL d   1       0.317  -2.731 -15.644  0.00  0.00    -0.061 C 
ATOM     48 1HG2 VAL d   1       0.399  -3.269 -16.587  0.00  0.00     0.023 H 
ATOM     49 2HG2 VAL d   1      -0.592  -2.129 -15.648  0.00  0.00     0.023 H 
ATOM     50 3HG2 VAL d   1       1.183  -2.080 -15.520  0.00  0.00     0.023 H 
ENDBRANCH  41  47
ENDBRANCH  35  41
ENDBRANCH  29  32
ENDBRANCH  11  29
BRANCH   1  51
ATOM     51  C   UNK d   0       2.665   0.994  -9.417  0.00  0.00    -0.038 C 
ATOM     52  H   UNK d   0       3.260   1.694  -8.831  0.00  0.00     0.028 H 
ATOM     53  H   UNK d   0       2.691   1.287 -10.467  0.00  0.00     0.028 H 
ATOM     54  H   UNK d   0       1.634   1.006  -9.063  0.00  0.00     0.028 H 
ENDBRANCH   1  51
TORSDOF 8
ENDMDL
MODEL 7
REMARK VINA RESULT:      -6.8      6.911     10.233
REMARK  6 active torsions:
REMARK  status: ('A' for Active; 'I' for Inactive)
REMARK    1  A    between atoms: C_1  and  C_2 
REMARK    2  A    between atoms: C_12  and  C_13 
REMARK    3  A    between atoms: C_13  and  C_14 
REMARK       I    between atoms: C_14  and  N_16 
REMARK       I    between atoms: N_16  and  CA_17 
REMARK    4  A    between atoms: CA_17  and  CB_19 
REMARK       I    between atoms: CA_17  and  C_23 
REMARK    5  A    between atoms: CB_19  and  CG1_21 
REMARK    6  A    between atoms: CB_19  and  CG2_22 
ROOT
ATOM      1  C   UNK d   0       9.622   3.349  -4.474  0.00  0.00    -0.029 A 
ATOM      2  C   UNK d   0       9.719   4.811  -4.421  0.00  0.00     0.022 A 
ATOM      3  C   UNK d   0       9.840   5.471  -3.198  0.00  0.00    -0.040 A 
ATOM      4  C   UNK d   0       9.929   6.857  -3.177  0.00  0.00     0.024 A 
ATOM      5  C   UNK d   0       9.896   7.590  -4.382  0.00  0.00     0.139 A 
ATOM      6  C   UNK d   0       9.775   6.926  -5.592  0.00  0.00     0.024 A 
ATOM      7  C   UNK d   0       9.680   5.544  -5.625  0.00  0.00     0.143 A 
ATOM      8  O   UNK d   0       9.569   4.906  -6.809  0.00  0.00    -0.422 OA
ATOM      9  C   UNK d   0       9.481   3.573  -6.851  0.00  0.00     0.341 A 
ATOM     10  O   UNK d   0       9.377   3.031  -7.936  0.00  0.00    -0.245 OA
ATOM     11  C   UNK d   0       9.505   2.767  -5.695  0.00  0.00     0.049 A 
ATOM     12  O   UNK d   0      10.000   8.897  -4.056  0.00  0.00    -0.459 OA
ATOM     13  C   UNK d   0      10.098   9.056  -2.725  0.00  0.00     0.110 A 
ATOM     14  C   UNK d   0      10.062   7.858  -2.119  0.00  0.00     0.001 A 
ATOM     15  C   UNK d   0      10.148   7.640  -0.632  0.00  0.00    -0.024 C 
ATOM     16  C   UNK d   0      10.680   8.923   0.017  0.00  0.00    -0.049 C 
ATOM     17  C   UNK d   0       9.884  10.123  -0.505  0.00  0.00    -0.046 C 
ATOM     18  C   UNK d   0      10.229  10.365  -1.979  0.00  0.00     0.006 C 
ATOM     19  H   UNK d   0       9.864   4.909  -2.276  0.00  0.00     0.063 H 
ATOM     20  H   UNK d   0       9.750   7.489  -6.514  0.00  0.00     0.069 H 
ATOM     21  H   UNK d   0       9.158   7.414  -0.237  0.00  0.00     0.031 H 
ATOM     22  H   UNK d   0      10.826   6.813  -0.422  0.00  0.00     0.031 H 
ATOM     23  H   UNK d   0      11.734   9.048  -0.235  0.00  0.00     0.027 H 
ATOM     24  H   UNK d   0      10.570   8.857   1.099  0.00  0.00     0.027 H 
ATOM     25  H   UNK d   0      10.136  11.008   0.078  0.00  0.00     0.027 H 
ATOM     26  H   UNK d   0       8.816   9.918  -0.411  0.00  0.00     0.027 H 
ATOM     27  H   UNK d   0      11.251  10.732  -2.060  0.00  0.00     0.034 H 
ATOM     28  H   UNK d   0       9.540  11.097  -2.400  0.00  0.00     0.034 H 
ENDROOT
BRANCH  11  29
ATOM     29  C   UNK d   0       9.402   1.269  -5.813  0.00  0.00     0.056 C 
ATOM     30  H   UNK d   0       9.698   0.962  -6.817  0.00  0.00     0.041 H 
ATOM     31  H   UNK d   0      10.060   0.799  -5.082  0.00  0.00     0.041 H 
BRANCH  29  32
ATOM     32  C   UNK d   0       7.980   0.841  -5.557  0.00  0.00     0.218 C 
ATOM     33  O   UNK d   0       7.087   1.246  -6.270  0.00  0.00    -0.275 OA
ATOM     34  N   VAL d   1       7.700   0.009  -4.534  0.00  0.00    -0.307 N 
ATOM     35  CA  VAL d   1       6.318  -0.406  -4.285  0.00  0.00     0.065 C 
ATOM     36  H   VAL d   1       8.415  -0.316  -3.963  0.00  0.00     0.149 HD
ATOM     37  HA  VAL d   1       5.793  -0.511  -5.234  0.00  0.00     0.056 H 
ATOM     38  C   VAL d   1       5.625   0.631  -3.440  0.00  0.00     0.062 C 
ATOM     39  O   VAL d   1       6.226   1.618  -3.082  0.00  0.00    -0.548 OA
ATOM     40  OXT VAL d   1       4.342   0.461  -3.084  0.00  0.00    -0.548 OA
BRANCH  35  41
ATOM     41  CB  VAL d   1       6.313  -1.749  -3.549  0.00  0.00    -0.023 C 
ATOM     42  HB  VAL d   1       6.134  -1.580  -2.488  0.00  0.00     0.032 H 
BRANCH  41  43
ATOM     43  CG1 VAL d   1       7.666  -2.437  -3.737  0.00  0.00    -0.061 C 
ATOM     44 1HG1 VAL d   1       7.751  -2.800  -4.761  0.00  0.00     0.023 H 
ATOM     45 2HG1 VAL d   1       8.467  -1.725  -3.536  0.00  0.00     0.023 H 
ATOM     46 3HG1 VAL d   1       7.745  -3.277  -3.047  0.00  0.00     0.023 H 
ENDBRANCH  41  43
BRANCH  41  47
ATOM     47  CG2 VAL d   1       5.206  -2.637  -4.119  0.00  0.00    -0.061 C 
ATOM     48 1HG2 VAL d   1       4.259  -2.391  -3.639  0.00  0.00     0.023 H 
ATOM     49 2HG2 VAL d   1       5.122  -2.470  -5.193  0.00  0.00     0.023 H 
ATOM     50 3HG2 VAL d   1       5.447  -3.683  -3.931  0.00  0.00     0.023 H 
ENDBRANCH  41  47
ENDBRANCH  35  41
ENDBRANCH  29  32
ENDBRANCH  11  29
BRANCH   1  51
ATOM     51  C   UNK d   0       9.650   2.521  -3.215  0.00  0.00    -0.038 C 
ATOM     52  H   UNK d   0       9.904   1.490  -3.463  0.00  0.00     0.028 H 
ATOM     53  H   UNK d   0      10.398   2.924  -2.532  0.00  0.00     0.028 H 
ATOM     54  H   UNK d   0       8.670   2.550  -2.738  0.00  0.00     0.028 H 
ENDBRANCH   1  51
TORSDOF 8
ENDMDL
MODEL 8
REMARK VINA RESULT:      -6.4      7.008     11.204
REMARK  6 active torsions:
REMARK  status: ('A' for Active; 'I' for Inactive)
REMARK    1  A    between atoms: C_1  and  C_2 
REMARK    2  A    between atoms: C_12  and  C_13 
REMARK    3  A    between atoms: C_13  and  C_14 
REMARK       I    between atoms: C_14  and  N_16 
REMARK       I    between atoms: N_16  and  CA_17 
REMARK    4  A    between atoms: CA_17  and  CB_19 
REMARK       I    between atoms: CA_17  and  C_23 
REMARK    5  A    between atoms: CB_19  and  CG1_21 
REMARK    6  A    between atoms: CB_19  and  CG2_22 
ROOT
ATOM      1  C   UNK d   0       9.758   3.671  -5.037  0.00  0.00    -0.029 A 
ATOM      2  C   UNK d   0       9.131   2.359  -4.846  0.00  0.00     0.022 A 
ATOM      3  C   UNK d   0       7.954   2.236  -4.108  0.00  0.00    -0.040 A 
ATOM      4  C   UNK d   0       7.381   0.982  -3.942  0.00  0.00     0.024 A 
ATOM      5  C   UNK d   0       7.985  -0.158  -4.514  0.00  0.00     0.139 A 
ATOM      6  C   UNK d   0       9.155  -0.026  -5.246  0.00  0.00     0.024 A 
ATOM      7  C   UNK d   0       9.738   1.220  -5.413  0.00  0.00     0.143 A 
ATOM      8  O   UNK d   0      10.873   1.339  -6.133  0.00  0.00    -0.422 OA
ATOM      9  C   UNK d   0      11.441   2.537  -6.304  0.00  0.00     0.341 A 
ATOM     10  O   UNK d   0      12.468   2.607  -6.955  0.00  0.00    -0.245 OA
ATOM     11  C   UNK d   0      10.903   3.723  -5.766  0.00  0.00     0.049 A 
ATOM     12  O   UNK d   0       7.217  -1.220  -4.191  0.00  0.00    -0.459 OA
ATOM     13  C   UNK d   0       6.160  -0.845  -3.451  0.00  0.00     0.110 A 
ATOM     14  C   UNK d   0       6.189   0.483  -3.256  0.00  0.00     0.001 A 
ATOM     15  C   UNK d   0       5.166   1.264  -2.475  0.00  0.00    -0.024 C 
ATOM     16  C   UNK d   0       3.918   0.391  -2.300  0.00  0.00    -0.049 C 
ATOM     17  C   UNK d   0       4.335  -0.992  -1.790  0.00  0.00    -0.046 C 
ATOM     18  C   UNK d   0       5.078  -1.745  -2.899  0.00  0.00     0.006 C 
ATOM     19  H   UNK d   0       7.492   3.109  -3.669  0.00  0.00     0.063 H 
ATOM     20  H   UNK d   0       9.616  -0.899  -5.684  0.00  0.00     0.069 H 
ATOM     21  H   UNK d   0       5.571   1.522  -1.496  0.00  0.00     0.031 H 
ATOM     22  H   UNK d   0       4.906   2.172  -3.017  0.00  0.00     0.031 H 
ATOM     23  H   UNK d   0       3.410   0.287  -3.260  0.00  0.00     0.027 H 
ATOM     24  H   UNK d   0       3.244   0.856  -1.581  0.00  0.00     0.027 H 
ATOM     25  H   UNK d   0       3.448  -1.554  -1.499  0.00  0.00     0.027 H 
ATOM     26  H   UNK d   0       4.991  -0.877  -0.926  0.00  0.00     0.027 H 
ATOM     27  H   UNK d   0       4.380  -2.009  -3.693  0.00  0.00     0.034 H 
ATOM     28  H   UNK d   0       5.527  -2.650  -2.489  0.00  0.00     0.034 H 
ENDROOT
BRANCH  11  29
ATOM     29  C   UNK d   0      11.594   5.042  -5.997  0.00  0.00     0.056 C 
ATOM     30  H   UNK d   0      11.942   5.094  -7.029  0.00  0.00     0.041 H 
ATOM     31  H   UNK d   0      10.895   5.857  -5.808  0.00  0.00     0.041 H 
BRANCH  29  32
ATOM     32  C   UNK d   0      12.770   5.163  -5.063  0.00  0.00     0.218 C 
ATOM     33  O   UNK d   0      13.846   5.529  -5.487  0.00  0.00    -0.275 OA
ATOM     34  N   VAL d   1      12.628   4.865  -3.757  0.00  0.00    -0.307 N 
ATOM     35  CA  VAL d   1      13.771   4.982  -2.849  0.00  0.00     0.065 C 
ATOM     36  H   VAL d   1      11.767   4.572  -3.416  0.00  0.00     0.149 HD
ATOM     37  HA  VAL d   1      14.391   5.825  -3.152  0.00  0.00     0.056 H 
ATOM     38  C   VAL d   1      14.587   3.716  -2.900  0.00  0.00     0.062 C 
ATOM     39  O   VAL d   1      14.246   2.807  -3.622  0.00  0.00    -0.548 OA
ATOM     40  OXT VAL d   1      15.690   3.597  -2.145  0.00  0.00    -0.548 OA
BRANCH  35  41
ATOM     41  CB  VAL d   1      13.269   5.207  -1.421  0.00  0.00    -0.023 C 
ATOM     42  HB  VAL d   1      13.638   4.410  -0.776  0.00  0.00     0.032 H 
BRANCH  41  43
ATOM     43  CG1 VAL d   1      11.739   5.204  -1.413  0.00  0.00    -0.061 C 
ATOM     44 1HG1 VAL d   1      11.379   5.387  -0.401  0.00  0.00     0.023 H 
ATOM     45 2HG1 VAL d   1      11.370   5.986  -2.077  0.00  0.00     0.023 H 
ATOM     46 3HG1 VAL d   1      11.376   4.235  -1.757  0.00  0.00     0.023 H 
ENDBRANCH  41  43
BRANCH  41  47
ATOM     47  CG2 VAL d   1      13.778   6.555  -0.908  0.00  0.00    -0.061 C 
ATOM     48 1HG2 VAL d   1      14.867   6.539  -0.861  0.00  0.00     0.023 H 
ATOM     49 2HG2 VAL d   1      13.457   7.346  -1.585  0.00  0.00     0.023 H 
ATOM     50 3HG2 VAL d   1      13.375   6.742   0.087  0.00  0.00     0.023 H 
ENDBRANCH  41  47
ENDBRANCH  35  41
ENDBRANCH  29  32
ENDBRANCH  11  29
BRANCH   1  51
ATOM     51  C   UNK d   0       9.153   4.917  -4.445  0.00  0.00    -0.038 C 
ATOM     52  H   UNK d   0       8.161   5.077  -4.869  0.00  0.00     0.028 H 
ATOM     53  H   UNK d   0       9.071   4.802  -3.364  0.00  0.00     0.028 H 
ATOM     54  H   UNK d   0       9.789   5.773  -4.672  0.00  0.00     0.028 H 
ENDBRANCH   1  51
TORSDOF 8
ENDMDL
MODEL 9
REMARK VINA RESULT:      -6.3      7.146     11.894
REMARK  6 active torsions:
REMARK  status: ('A' for Active; 'I' for Inactive)
REMARK    1  A    between atoms: C_1  and  C_2 
REMARK    2  A    between atoms: C_12  and  C_13 
REMARK    3  A    between atoms: C_13  and  C_14 
REMARK       I    between atoms: C_14  and  N_16 
REMARK       I    between atoms: N_16  and  CA_17 
REMARK    4  A    between atoms: CA_17  and  CB_19 
REMARK       I    between atoms: CA_17  and  C_23 
REMARK    5  A    between atoms: CB_19  and  CG1_21 
REMARK    6  A    between atoms: CB_19  and  CG2_22 
ROOT
ATOM      1  C   UNK d   0      10.248   2.860  -3.994  0.00  0.00    -0.029 A 
ATOM      2  C   UNK d   0       9.214   1.877  -4.336  0.00  0.00     0.022 A 
ATOM      3  C   UNK d   0       8.032   1.806  -3.600  0.00  0.00    -0.040 A 
ATOM      4  C   UNK d   0       7.070   0.865  -3.944  0.00  0.00     0.024 A 
ATOM      5  C   UNK d   0       7.288  -0.012  -5.028  0.00  0.00     0.139 A 
ATOM      6  C   UNK d   0       8.467   0.065  -5.753  0.00  0.00     0.024 A 
ATOM      7  C   UNK d   0       9.436   0.996  -5.415  0.00  0.00     0.143 A 
ATOM      8  O   UNK d   0      10.578   1.068  -6.131  0.00  0.00    -0.422 OA
ATOM      9  C   UNK d   0      11.516   1.966  -5.816  0.00  0.00     0.341 A 
ATOM     10  O   UNK d   0      12.536   2.000  -6.480  0.00  0.00    -0.245 OA
ATOM     11  C   UNK d   0      11.376   2.877  -4.749  0.00  0.00     0.049 A 
ATOM     12  O   UNK d   0       6.198  -0.804  -5.126  0.00  0.00    -0.459 OA
ATOM     13  C   UNK d   0       5.293  -0.498  -4.181  0.00  0.00     0.110 A 
ATOM     14  C   UNK d   0       5.751   0.510  -3.421  0.00  0.00     0.001 A 
ATOM     15  C   UNK d   0       5.010   1.124  -2.263  0.00  0.00    -0.024 C 
ATOM     16  C   UNK d   0       3.537   0.708  -2.354  0.00  0.00    -0.049 C 
ATOM     17  C   UNK d   0       3.450  -0.807  -2.562  0.00  0.00    -0.046 C 
ATOM     18  C   UNK d   0       3.951  -1.161  -3.967  0.00  0.00     0.006 C 
ATOM     19  H   UNK d   0       7.865   2.477  -2.770  0.00  0.00     0.063 H 
ATOM     20  H   UNK d   0       8.633  -0.606  -6.582  0.00  0.00     0.069 H 
ATOM     21  H   UNK d   0       5.433   0.765  -1.325  0.00  0.00     0.031 H 
ATOM     22  H   UNK d   0       5.088   2.209  -2.312  0.00  0.00     0.031 H 
ATOM     23  H   UNK d   0       3.066   1.218  -3.195  0.00  0.00     0.027 H 
ATOM     24  H   UNK d   0       3.024   0.978  -1.431  0.00  0.00     0.027 H 
ATOM     25  H   UNK d   0       2.416  -1.130  -2.453  0.00  0.00     0.027 H 
ATOM     26  H   UNK d   0       4.069  -1.311  -1.818  0.00  0.00     0.027 H 
ATOM     27  H   UNK d   0       3.241  -0.799  -4.710  0.00  0.00     0.034 H 
ATOM     28  H   UNK d   0       4.058  -2.242  -4.055  0.00  0.00     0.034 H 
ENDROOT
BRANCH  11  29
ATOM     29  C   UNK d   0      12.474   3.864  -4.447  0.00  0.00     0.056 C 
ATOM     30  H   UNK d   0      12.421   4.157  -3.398  0.00  0.00     0.041 H 
ATOM     31  H   UNK d   0      13.442   3.404  -4.646  0.00  0.00     0.041 H 
BRANCH  29  32
ATOM     32  C   UNK d   0      12.308   5.082  -5.317  0.00  0.00     0.218 C 
ATOM     33  O   UNK d   0      12.959   5.194  -6.335  0.00  0.00    -0.275 OA
ATOM     34  N   VAL d   1      11.438   6.049  -4.966  0.00  0.00    -0.307 N 
ATOM     35  CA  VAL d   1      11.277   7.234  -5.812  0.00  0.00     0.065 C 
ATOM     36  H   VAL d   1      10.916   5.960  -4.152  0.00  0.00     0.149 HD
ATOM     37  HA  VAL d   1      11.385   6.950  -6.859  0.00  0.00     0.056 H 
ATOM     38  C   VAL d   1      12.328   8.253  -5.457  0.00  0.00     0.062 C 
ATOM     39  O   VAL d   1      13.131   8.013  -4.584  0.00  0.00    -0.548 OA
ATOM     40  OXT VAL d   1      12.375   9.426  -6.108  0.00  0.00    -0.548 OA
BRANCH  35  41
ATOM     41  CB  VAL d   1       9.887   7.836  -5.589  0.00  0.00    -0.023 C 
ATOM     42  HB  VAL d   1       9.979   8.753  -5.008  0.00  0.00     0.032 H 
BRANCH  41  43
ATOM     43  CG1 VAL d   1       9.015   6.834  -4.830  0.00  0.00    -0.061 C 
ATOM     44 1HG1 VAL d   1       7.992   7.208  -4.780  0.00  0.00     0.023 H 
ATOM     45 2HG1 VAL d   1       9.027   5.876  -5.348  0.00  0.00     0.023 H 
ATOM     46 3HG1 VAL d   1       9.404   6.706  -3.820  0.00  0.00     0.023 H 
ENDBRANCH  41  43
BRANCH  41  47
ATOM     47  CG2 VAL d   1       9.245   8.150  -6.942  0.00  0.00    -0.061 C 
ATOM     48 1HG2 VAL d   1       9.740   9.012  -7.388  0.00  0.00     0.023 H 
ATOM     49 2HG2 VAL d   1       9.351   7.289  -7.602  0.00  0.00     0.023 H 
ATOM     50 3HG2 VAL d   1       8.188   8.371  -6.799  0.00  0.00     0.023 H 
ENDBRANCH  41  47
ENDBRANCH  35  41
ENDBRANCH  29  32
ENDBRANCH  11  29
BRANCH   1  51
ATOM     51  C   UNK d   0      10.063   3.817  -2.845  0.00  0.00    -0.038 C 
ATOM     52  H   UNK d   0       9.865   4.816  -3.233  0.00  0.00     0.028 H 
ATOM     53  H   UNK d   0       9.221   3.491  -2.234  0.00  0.00     0.028 H 
ATOM     54  H   UNK d   0      10.967   3.834  -2.237  0.00  0.00     0.028 H 
ENDBRANCH   1  51
TORSDOF 8
ENDMDL
MODEL 10
REMARK VINA RESULT:      -6.3      2.500      3.962
REMARK  6 active torsions:
REMARK  status: ('A' for Active; 'I' for Inactive)
REMARK    1  A    between atoms: C_1  and  C_2 
REMARK    2  A    between atoms: C_12  and  C_13 
REMARK    3  A    between atoms: C_13  and  C_14 
REMARK       I    between atoms: C_14  and  N_16 
REMARK       I    between atoms: N_16  and  CA_17 
REMARK    4  A    between atoms: CA_17  and  CB_19 
REMARK       I    between atoms: CA_17  and  C_23 
REMARK    5  A    between atoms: CB_19  and  CG1_21 
REMARK    6  A    between atoms: CB_19  and  CG2_22 
ROOT
ATOM      1  C   UNK d   0       8.781  -4.207  -5.494  0.00  0.00    -0.029 A 
ATOM      2  C   UNK d   0       7.443  -3.771  -5.084  0.00  0.00     0.022 A 
ATOM      3  C   UNK d   0       7.255  -2.527  -4.482  0.00  0.00    -0.040 A 
ATOM      4  C   UNK d   0       5.977  -2.139  -4.102  0.00  0.00     0.024 A 
ATOM      5  C   UNK d   0       4.878  -2.995  -4.324  0.00  0.00     0.139 A 
ATOM      6  C   UNK d   0       5.074  -4.230  -4.924  0.00  0.00     0.024 A 
ATOM      7  C   UNK d   0       6.346  -4.630  -5.301  0.00  0.00     0.143 A 
ATOM      8  O   UNK d   0       6.526  -5.831  -5.890  0.00  0.00    -0.422 OA
ATOM      9  C   UNK d   0       7.748  -6.223  -6.262  0.00  0.00     0.341 A 
ATOM     10  O   UNK d   0       7.874  -7.315  -6.785  0.00  0.00    -0.245 OA
ATOM     11  C   UNK d   0       8.897  -5.428  -6.075  0.00  0.00     0.049 A 
ATOM     12  O   UNK d   0       3.779  -2.362  -3.860  0.00  0.00    -0.459 OA
ATOM     13  C   UNK d   0       4.093  -1.157  -3.355  0.00  0.00     0.110 A 
ATOM     14  C   UNK d   0       5.415  -0.948  -3.466  0.00  0.00     0.001 A 
ATOM     15  C   UNK d   0       6.133   0.294  -3.010  0.00  0.00    -0.024 C 
ATOM     16  C   UNK d   0       5.096   1.402  -2.789  0.00  0.00    -0.049 C 
ATOM     17  C   UNK d   0       3.950   0.858  -1.931  0.00  0.00    -0.046 C 
ATOM     18  C   UNK d   0       3.138  -0.157  -2.743  0.00  0.00     0.006 C 
ATOM     19  H   UNK d   0       8.097  -1.872  -4.311  0.00  0.00     0.063 H 
ATOM     20  H   UNK d   0       4.232  -4.885  -5.093  0.00  0.00     0.069 H 
ATOM     21  H   UNK d   0       6.656   0.092  -2.075  0.00  0.00     0.031 H 
ATOM     22  H   UNK d   0       6.847   0.606  -3.772  0.00  0.00     0.031 H 
ATOM     23  H   UNK d   0       4.705   1.731  -3.753  0.00  0.00     0.027 H 
ATOM     24  H   UNK d   0       5.565   2.244  -2.279  0.00  0.00     0.027 H 
ATOM     25  H   UNK d   0       3.303   1.681  -1.626  0.00  0.00     0.027 H 
ATOM     26  H   UNK d   0       4.359   0.371  -1.045  0.00  0.00     0.027 H 
ATOM     27  H   UNK d   0       2.593   0.359  -3.533  0.00  0.00     0.034 H 
ATOM     28  H   UNK d   0       2.437  -0.673  -2.087  0.00  0.00     0.034 H 
ENDROOT
BRANCH  11  29
ATOM     29  C   UNK d   0      10.246  -5.932  -6.518  0.00  0.00     0.056 C 
ATOM     30  H   UNK d   0      10.116  -6.675  -7.306  0.00  0.00     0.041 H 
ATOM     31  H   UNK d   0      10.839  -5.100  -6.898  0.00  0.00     0.041 H 
BRANCH  29  32
ATOM     32  C   UNK d   0      10.957  -6.561  -5.347  0.00  0.00     0.218 C 
ATOM     33  O   UNK d   0      12.168  -6.623  -5.336  0.00  0.00    -0.275 OA
ATOM     34  N   VAL d   1      10.247  -7.053  -4.313  0.00  0.00    -0.307 N 
ATOM     35  CA  VAL d   1      10.938  -7.664  -3.175  0.00  0.00     0.065 C 
ATOM     36  H   VAL d   1       9.278  -7.003  -4.321  0.00  0.00     0.149 HD
ATOM     37  HA  VAL d   1      11.875  -7.139  -2.994  0.00  0.00     0.056 H 
ATOM     38  C   VAL d   1      11.226  -9.112  -3.479  0.00  0.00     0.062 C 
ATOM     39  O   VAL d   1      10.887  -9.585  -4.539  0.00  0.00    -0.548 OA
ATOM     40  OXT VAL d   1      11.857  -9.876  -2.574  0.00  0.00    -0.548 OA
BRANCH  35  41
ATOM     41  CB  VAL d   1      10.053  -7.571  -1.930  0.00  0.00    -0.023 C 
ATOM     42  HB  VAL d   1      10.550  -8.063  -1.094  0.00  0.00     0.032 H 
BRANCH  41  43
ATOM     43  CG1 VAL d   1       8.714  -8.259  -2.205  0.00  0.00    -0.061 C 
ATOM     44 1HG1 VAL d   1       8.485  -8.948  -1.393  0.00  0.00     0.023 H 
ATOM     45 2HG1 VAL d   1       7.928  -7.508  -2.277  0.00  0.00     0.023 H 
ATOM     46 3HG1 VAL d   1       8.776  -8.811  -3.143  0.00  0.00     0.023 H 
ENDBRANCH  41  43
BRANCH  41  47
ATOM     47  CG2 VAL d   1       9.810  -6.101  -1.586  0.00  0.00    -0.061 C 
ATOM     48 1HG2 VAL d   1      10.716  -5.527  -1.782  0.00  0.00     0.023 H 
ATOM     49 2HG2 VAL d   1       8.996  -5.714  -2.200  0.00  0.00     0.023 H 
ATOM     50 3HG2 VAL d   1       9.544  -6.013  -0.533  0.00  0.00     0.023 H 
ENDBRANCH  41  47
ENDBRANCH  35  41
ENDBRANCH  29  32
ENDBRANCH  11  29
BRANCH   1  51
ATOM     51  C   UNK d   0       9.987  -3.329  -5.277  0.00  0.00    -0.038 C 
ATOM     52  H   UNK d   0      10.858  -3.783  -5.752  0.00  0.00     0.028 H 
ATOM     53  H   UNK d   0       9.805  -2.348  -5.716  0.00  0.00     0.028 H 
ATOM     54  H   UNK d   0      10.170  -3.220  -4.208  0.00  0.00     0.028 H 
ENDBRANCH   1  51
TORSDOF 8
ENDMDL
