MODEL 1
REMARK VINA RESULT:      -6.6      0.000      0.000
REMARK  9 active torsions:
REMARK  status: ('A' for Active; 'I' for Inactive)
REMARK    1  A    between atoms: C_1  and  C_2 
REMARK       I    between atoms: C_2  and  N_4 
REMARK    2  A    between atoms: N_4  and  C_5 
REMARK    3  A    between atoms: C_5  and  C_6 
REMARK    4  A    between atoms: C_6  and  N_7 
REMARK    5  A    between atoms: N_7  and  C_8 
REMARK    6  A    between atoms: C_11  and  C_34 
REMARK    7  A    between atoms: C_14  and  C_30 
REMARK    8  A    between atoms: C_30  and  O_32 
REMARK    9  A    between atoms: O_32  and  C_33 
ROOT
ATOM      1  C   LIG d   1       2.744  -1.552  -9.589  0.00  0.00     0.019 C 
ATOM      2  H   LIG d   1       1.888  -1.106 -10.115  0.00  0.00     0.046 H 
ATOM      3  C   LIG d   1       2.620  -3.077  -9.555  0.00  0.00     0.010 C 
ATOM      4  C   LIG d   1       3.815  -3.669  -8.803  0.00  0.00     0.008 C 
ATOM      5  H   LIG d   1       3.725  -4.763  -8.725  0.00  0.00     0.090 H 
ATOM      6  N   LIG d   1       3.857  -3.129  -7.439  0.00  0.00     0.258 N 
ATOM      7  C   LIG d   1       4.877  -3.787  -6.615  0.00  0.00     0.083 C 
ATOM      8  H   LIG d   1       5.856  -3.399  -6.931  0.00  0.00     0.097 H 
ATOM      9  C   LIG d   1       4.616  -3.483  -5.134  0.00  0.00     0.029 C 
ATOM     10  C   LIG d   1       4.383  -2.000  -4.990  0.00  0.00    -0.008 A 
ATOM     11  C   LIG d   1       4.392  -1.184  -3.796  0.00  0.00     0.004 A 
ATOM     12  C   LIG d   1       4.605  -1.477  -2.445  0.00  0.00    -0.052 A 
ATOM     13  C   LIG d   1       4.537  -0.426  -1.563  0.00  0.00    -0.061 A 
ATOM     14  C   LIG d   1       4.269   0.867  -1.979  0.00  0.00    -0.060 A 
ATOM     15  C   LIG d   1       4.056   1.187  -3.309  0.00  0.00    -0.038 A 
ATOM     16  C   LIG d   1       4.119   0.141  -4.227  0.00  0.00     0.047 A 
ATOM     17  N   LIG d   1       3.963   0.104  -5.583  0.00  0.00    -0.353 N 
ATOM     18  H   LIG d   1       3.743   1.028  -6.137  0.00  0.00     0.166 HD
ATOM     19  C   LIG d   1       4.121  -1.178  -6.033  0.00  0.00     0.069 A 
ATOM     20  C   LIG d   1       4.030  -1.668  -7.457  0.00  0.00     0.023 C 
ATOM     21  H   LIG d   1       4.960  -1.436  -7.998  0.00  0.00     0.092 H 
ATOM     22  C   LIG d   1       2.836  -1.018  -8.156  0.00  0.00     0.012 C 
ATOM     23  H   LIG d   1       1.689  -3.358  -9.044  0.00  0.00     0.034 H 
ATOM     24  H   LIG d   1       2.606  -3.467 -10.584  0.00  0.00     0.034 H 
ATOM     25  H   LIG d   1       3.729  -4.039  -4.796  0.00  0.00     0.037 H 
ATOM     26  H   LIG d   1       5.489  -3.787  -4.538  0.00  0.00     0.037 H 
ATOM     27  H   LIG d   1       4.815  -2.482  -2.112  0.00  0.00     0.062 H 
ATOM     28  H   LIG d   1       4.697  -0.616  -0.512  0.00  0.00     0.062 H 
ATOM     29  H   LIG d   1       4.227   1.654  -1.240  0.00  0.00     0.062 H 
ATOM     30  H   LIG d   1       3.848   2.200  -3.620  0.00  0.00     0.064 H 
ATOM     31  H   LIG d   1       2.969   0.074  -8.179  0.00  0.00     0.034 H 
ATOM     32  H   LIG d   1       1.910  -1.263  -7.614  0.00  0.00     0.034 H 
ATOM     33  H   LIG d   1       2.886  -3.349  -6.971  0.00  0.00     0.206 HD
ENDROOT
BRANCH   1  34
ATOM     34  N   LIG d   1       3.955  -1.175 -10.331  0.00  0.00    -0.311 N 
ATOM     35  H   LIG d   1       4.348  -2.066 -10.841  0.00  0.00     0.122 HD
BRANCH  34  36
ATOM     36  C   LIG d   1       3.661  -0.131 -11.322  0.00  0.00     0.012 C 
ATOM     37  H   LIG d   1       2.576  -0.084 -11.494  0.00  0.00     0.044 H 
ATOM     38  H   LIG d   1       4.172  -0.370 -12.267  0.00  0.00     0.044 H 
BRANCH  36  39
ATOM     39  C   LIG d   1       4.156   1.220 -10.802  0.00  0.00     0.024 C 
ATOM     40  H   LIG d   1       3.418   1.634 -10.099  0.00  0.00     0.047 H 
ATOM     41  H   LIG d   1       4.285   1.913 -11.647  0.00  0.00     0.047 H 
BRANCH  39  42
ATOM     42  N   LIG d   1       5.438   1.040 -10.117  0.00  0.00    -0.314 N 
ATOM     43  C   LIG d   1       5.561   1.380  -8.819  0.00  0.00     0.210 C 
ATOM     44  O   LIG d   1       4.610   1.836  -8.219  0.00  0.00    -0.276 OA
ATOM     45  H   LIG d   1       6.299   0.627 -10.661  0.00  0.00     0.149 HD
BRANCH  43  46
ATOM     46  C   LIG d   1       6.879   1.195  -8.113  0.00  0.00     0.012 C 
ATOM     47  H   LIG d   1       7.697   1.235  -8.848  0.00  0.00     0.032 H 
ATOM     48  H   LIG d   1       6.889   0.219  -7.606  0.00  0.00     0.032 H 
ATOM     49  H   LIG d   1       7.013   1.995  -7.371  0.00  0.00     0.032 H 
ENDBRANCH  43  46
ENDBRANCH  39  42
ENDBRANCH  36  39
ENDBRANCH  34  36
ENDBRANCH   1  34
BRANCH   4  50
ATOM     50  C   LIG d   1       5.091  -3.306  -9.518  0.00  0.00     0.002 A 
ATOM     51  C   LIG d   1       5.300  -3.731 -10.816  0.00  0.00    -0.035 A 
ATOM     52  C   LIG d   1       6.470  -3.393 -11.474  0.00  0.00     0.041 A 
ATOM     53  H   LIG d   1       4.549  -4.322 -11.318  0.00  0.00     0.064 H 
ATOM     54  C   LIG d   1       7.434  -2.640 -10.827  0.00  0.00    -0.043 A 
ATOM     55 CL   LIG d   1       6.729  -3.919 -13.107  0.00  0.00    -0.084 Cl
ATOM     56  C   LIG d   1       7.226  -2.222  -9.527  0.00  0.00    -0.060 A 
ATOM     57  H   LIG d   1       8.349  -2.381 -11.340  0.00  0.00     0.063 H 
ATOM     58  C   LIG d   1       6.056  -2.555  -8.872  0.00  0.00    -0.053 A 
ATOM     59  H   LIG d   1       7.980  -1.635  -9.021  0.00  0.00     0.062 H 
ATOM     60  H   LIG d   1       5.894  -2.227  -7.856  0.00  0.00     0.062 H 
ENDBRANCH   4  50
BRANCH   7  61
ATOM     61  C   LIG d   1       4.822  -5.275  -6.841  0.00  0.00     0.356 C 
ATOM     62  O   LIG d   1       3.841  -5.900  -6.514  0.00  0.00    -0.244 OA
BRANCH  61  63
ATOM     63  O   LIG d   1       5.863  -5.907  -7.406  0.00  0.00    -0.464 OA
BRANCH  63  64
ATOM     64  C   LIG d   1       7.190  -5.512  -6.968  0.00  0.00     0.082 C 
ATOM     65  H   LIG d   1       7.104  -4.811  -6.125  0.00  0.00     0.066 H 
ATOM     66  H   LIG d   1       7.721  -5.025  -7.800  0.00  0.00     0.066 H 
ATOM     67  H   LIG d   1       7.751  -6.403  -6.648  0.00  0.00     0.066 H 
ENDBRANCH  63  64
ENDBRANCH  61  63
ENDBRANCH   7  61
TORSDOF 9
ENDMDL
MODEL 2
REMARK VINA RESULT:      -6.4      2.585      5.376
REMARK  9 active torsions:
REMARK  status: ('A' for Active; 'I' for Inactive)
REMARK    1  A    between atoms: C_1  and  C_2 
REMARK       I    between atoms: C_2  and  N_4 
REMARK    2  A    between atoms: N_4  and  C_5 
REMARK    3  A    between atoms: C_5  and  C_6 
REMARK    4  A    between atoms: C_6  and  N_7 
REMARK    5  A    between atoms: N_7  and  C_8 
REMARK    6  A    between atoms: C_11  and  C_34 
REMARK    7  A    between atoms: C_14  and  C_30 
REMARK    8  A    between atoms: C_30  and  O_32 
REMARK    9  A    between atoms: O_32  and  C_33 
ROOT
ATOM      1  C   LIG d   1       4.458  -4.266  -9.137  0.00  0.00     0.019 C 
ATOM      2  H   LIG d   1       4.669  -5.340  -9.233  0.00  0.00     0.046 H 
ATOM      3  C   LIG d   1       5.440  -3.447  -9.979  0.00  0.00     0.010 C 
ATOM      4  C   LIG d   1       5.135  -1.956  -9.813  0.00  0.00     0.008 C 
ATOM      5  H   LIG d   1       5.858  -1.344 -10.374  0.00  0.00     0.090 H 
ATOM      6  N   LIG d   1       5.243  -1.585  -8.398  0.00  0.00     0.258 N 
ATOM      7  C   LIG d   1       5.130  -0.136  -8.196  0.00  0.00     0.083 C 
ATOM      8  H   LIG d   1       4.070   0.132  -8.313  0.00  0.00     0.097 H 
ATOM      9  C   LIG d   1       5.639   0.230  -6.796  0.00  0.00     0.029 C 
ATOM     10  C   LIG d   1       5.008  -0.713  -5.802  0.00  0.00    -0.008 A 
ATOM     11  C   LIG d   1       4.926  -0.605  -4.363  0.00  0.00     0.004 A 
ATOM     12  C   LIG d   1       5.381   0.356  -3.453  0.00  0.00    -0.052 A 
ATOM     13  C   LIG d   1       5.118   0.128  -2.125  0.00  0.00    -0.061 A 
ATOM     14  C   LIG d   1       4.436  -0.998  -1.693  0.00  0.00    -0.060 A 
ATOM     15  C   LIG d   1       3.974  -1.963  -2.569  0.00  0.00    -0.038 A 
ATOM     16  C   LIG d   1       4.225  -1.759  -3.924  0.00  0.00     0.047 A 
ATOM     17  N   LIG d   1       3.916  -2.493  -5.034  0.00  0.00    -0.353 N 
ATOM     18  H   LIG d   1       3.365  -3.439  -4.930  0.00  0.00     0.166 HD
ATOM     19  C   LIG d   1       4.387  -1.863  -6.153  0.00  0.00     0.069 A 
ATOM     20  C   LIG d   1       4.267  -2.325  -7.583  0.00  0.00     0.023 C 
ATOM     21  H   LIG d   1       3.259  -2.108  -7.969  0.00  0.00     0.092 H 
ATOM     22  C   LIG d   1       4.556  -3.824  -7.673  0.00  0.00     0.012 C 
ATOM     23  H   LIG d   1       6.468  -3.651  -9.646  0.00  0.00     0.034 H 
ATOM     24  H   LIG d   1       5.336  -3.726 -11.038  0.00  0.00     0.034 H 
ATOM     25  H   LIG d   1       6.735   0.131  -6.766  0.00  0.00     0.037 H 
ATOM     26  H   LIG d   1       5.358   1.268  -6.563  0.00  0.00     0.037 H 
ATOM     27  H   LIG d   1       5.912   1.236  -3.782  0.00  0.00     0.062 H 
ATOM     28  H   LIG d   1       5.454   0.849  -1.395  0.00  0.00     0.062 H 
ATOM     29  H   LIG d   1       4.259  -1.126  -0.635  0.00  0.00     0.062 H 
ATOM     30  H   LIG d   1       3.443  -2.837  -2.220  0.00  0.00     0.064 H 
ATOM     31  H   LIG d   1       3.820  -4.379  -7.073  0.00  0.00     0.034 H 
ATOM     32  H   LIG d   1       5.568  -4.030  -7.294  0.00  0.00     0.034 H 
ATOM     33  H   LIG d   1       6.251  -1.871  -8.061  0.00  0.00     0.206 HD
ENDROOT
BRANCH   1  34
ATOM     34  N   LIG d   1       3.091  -4.044  -9.626  0.00  0.00    -0.311 N 
ATOM     35  H   LIG d   1       3.138  -3.450 -10.549  0.00  0.00     0.122 HD
BRANCH  34  36
ATOM     36  C   LIG d   1       2.416  -5.321  -9.897  0.00  0.00     0.012 C 
ATOM     37  H   LIG d   1       2.145  -5.801  -8.945  0.00  0.00     0.044 H 
ATOM     38  H   LIG d   1       3.092  -5.980 -10.460  0.00  0.00     0.044 H 
BRANCH  36  39
ATOM     39  C   LIG d   1       1.151  -5.064 -10.719  0.00  0.00     0.024 C 
ATOM     40  H   LIG d   1       1.103  -5.783 -11.550  0.00  0.00     0.047 H 
ATOM     41  H   LIG d   1       1.176  -4.041 -11.121  0.00  0.00     0.047 H 
BRANCH  39  42
ATOM     42  N   LIG d   1      -0.027  -5.225  -9.863  0.00  0.00    -0.314 N 
ATOM     43  C   LIG d   1      -0.788  -6.333  -9.968  0.00  0.00     0.210 C 
ATOM     44  O   LIG d   1      -0.498  -7.195 -10.770  0.00  0.00    -0.276 OA
ATOM     45  H   LIG d   1      -0.290  -4.444  -9.137  0.00  0.00     0.149 HD
BRANCH  43  46
ATOM     46  C   LIG d   1      -2.000  -6.500  -9.088  0.00  0.00     0.012 C 
ATOM     47  H   LIG d   1      -1.780  -6.111  -8.083  0.00  0.00     0.032 H 
ATOM     48  H   LIG d   1      -2.259  -7.567  -9.019  0.00  0.00     0.032 H 
ATOM     49  H   LIG d   1      -2.845  -5.944  -9.519  0.00  0.00     0.032 H 
ENDBRANCH  43  46
ENDBRANCH  39  42
ENDBRANCH  36  39
ENDBRANCH  34  36
ENDBRANCH   1  34
BRANCH   4  50
ATOM     50  C   LIG d   1       3.736  -1.671 -10.294  0.00  0.00     0.002 A 
ATOM     51  C   LIG d   1       3.384  -1.952 -11.600  0.00  0.00    -0.035 A 
ATOM     52  C   LIG d   1       2.097  -1.695 -12.040  0.00  0.00     0.041 A 
ATOM     53  H   LIG d   1       4.111  -2.376 -12.276  0.00  0.00     0.064 H 
ATOM     54  C   LIG d   1       1.168  -1.146 -11.175  0.00  0.00    -0.043 A 
ATOM     55 CL   LIG d   1       1.652  -2.055 -13.678  0.00  0.00    -0.084 Cl
ATOM     56  C   LIG d   1       1.524  -0.860  -9.870  0.00  0.00    -0.060 A 
ATOM     57  H   LIG d   1       0.165  -0.941 -11.519  0.00  0.00     0.063 H 
ATOM     58  C   LIG d   1       2.807  -1.121  -9.430  0.00  0.00    -0.053 A 
ATOM     59  H   LIG d   1       0.798  -0.430  -9.195  0.00  0.00     0.062 H 
ATOM     60  H   LIG d   1       3.084  -0.898  -8.410  0.00  0.00     0.062 H 
ENDBRANCH   4  50
BRANCH   7  61
ATOM     61  C   LIG d   1       5.954   0.581  -9.235  0.00  0.00     0.356 C 
ATOM     62  O   LIG d   1       7.144   0.384  -9.303  0.00  0.00    -0.244 OA
BRANCH  61  63
ATOM     63  O   LIG d   1       5.365   1.438 -10.084  0.00  0.00    -0.464 OA
BRANCH  63  64
ATOM     64  C   LIG d   1       4.299   2.266  -9.550  0.00  0.00     0.082 C 
ATOM     65  H   LIG d   1       4.031   1.915  -8.542  0.00  0.00     0.066 H 
ATOM     66  H   LIG d   1       3.419   2.201 -10.207  0.00  0.00     0.066 H 
ATOM     67  H   LIG d   1       4.638   3.312  -9.495  0.00  0.00     0.066 H 
ENDBRANCH  63  64
ENDBRANCH  61  63
ENDBRANCH   7  61
TORSDOF 9
ENDMDL
MODEL 3
REMARK VINA RESULT:      -6.2      3.414      6.519
REMARK  9 active torsions:
REMARK  status: ('A' for Active; 'I' for Inactive)
REMARK    1  A    between atoms: C_1  and  C_2 
REMARK       I    between atoms: C_2  and  N_4 
REMARK    2  A    between atoms: N_4  and  C_5 
REMARK    3  A    between atoms: C_5  and  C_6 
REMARK    4  A    between atoms: C_6  and  N_7 
REMARK    5  A    between atoms: N_7  and  C_8 
REMARK    6  A    between atoms: C_11  and  C_34 
REMARK    7  A    between atoms: C_14  and  C_30 
REMARK    8  A    between atoms: C_30  and  O_32 
REMARK    9  A    between atoms: O_32  and  C_33 
ROOT
ATOM      1  C   LIG d   1       4.651  -1.385  -6.897  0.00  0.00     0.019 C 
ATOM      2  H   LIG d   1       4.283  -0.756  -7.720  0.00  0.00     0.046 H 
ATOM      3  C   LIG d   1       6.068  -0.970  -6.495  0.00  0.00     0.010 C 
ATOM      4  C   LIG d   1       6.563  -1.873  -5.361  0.00  0.00     0.008 C 
ATOM      5  H   LIG d   1       7.598  -1.624  -5.086  0.00  0.00     0.090 H 
ATOM      6  N   LIG d   1       6.545  -3.272  -5.803  0.00  0.00     0.258 N 
ATOM      7  C   LIG d   1       7.169  -4.168  -4.822  0.00  0.00     0.083 C 
ATOM      8  H   LIG d   1       6.459  -4.293  -3.991  0.00  0.00     0.097 H 
ATOM      9  C   LIG d   1       7.483  -5.516  -5.483  0.00  0.00     0.029 C 
ATOM     10  C   LIG d   1       6.258  -5.971  -6.236  0.00  0.00    -0.008 A 
ATOM     11  C   LIG d   1       5.941  -7.278  -6.765  0.00  0.00     0.004 A 
ATOM     12  C   LIG d   1       6.626  -8.498  -6.761  0.00  0.00    -0.052 A 
ATOM     13  C   LIG d   1       6.009  -9.560  -7.373  0.00  0.00    -0.061 A 
ATOM     14  C   LIG d   1       4.765  -9.443  -7.972  0.00  0.00    -0.060 A 
ATOM     15  C   LIG d   1       4.064  -8.250  -7.990  0.00  0.00    -0.038 A 
ATOM     16  C   LIG d   1       4.665  -7.154  -7.376  0.00  0.00     0.047 A 
ATOM     17  N   LIG d   1       4.261  -5.860  -7.214  0.00  0.00    -0.353 N 
ATOM     18  H   LIG d   1       3.290  -5.534  -7.612  0.00  0.00     0.166 HD
ATOM     19  C   LIG d   1       5.217  -5.157  -6.533  0.00  0.00     0.069 A 
ATOM     20  C   LIG d   1       5.180  -3.701  -6.141  0.00  0.00     0.023 C 
ATOM     21  H   LIG d   1       4.543  -3.564  -5.254  0.00  0.00     0.092 H 
ATOM     22  C   LIG d   1       4.652  -2.862  -7.305  0.00  0.00     0.012 C 
ATOM     23  H   LIG d   1       6.739  -1.067  -7.361  0.00  0.00     0.034 H 
ATOM     24  H   LIG d   1       6.061   0.076  -6.153  0.00  0.00     0.034 H 
ATOM     25  H   LIG d   1       8.329  -5.396  -6.177  0.00  0.00     0.037 H 
ATOM     26  H   LIG d   1       7.745  -6.253  -4.709  0.00  0.00     0.037 H 
ATOM     27  H   LIG d   1       7.596  -8.598  -6.297  0.00  0.00     0.062 H 
ATOM     28  H   LIG d   1       6.509 -10.518  -7.389  0.00  0.00     0.062 H 
ATOM     29  H   LIG d   1       4.327 -10.313  -8.440  0.00  0.00     0.062 H 
ATOM     30  H   LIG d   1       3.094  -8.172  -8.460  0.00  0.00     0.064 H 
ATOM     31  H   LIG d   1       3.627  -3.175  -7.553  0.00  0.00     0.034 H 
ATOM     32  H   LIG d   1       5.300  -2.999  -8.185  0.00  0.00     0.034 H 
ATOM     33  H   LIG d   1       7.156  -3.334  -6.716  0.00  0.00     0.206 HD
ENDROOT
BRANCH   1  34
ATOM     34  N   LIG d   1       3.742  -1.192  -5.760  0.00  0.00    -0.311 N 
ATOM     35  H   LIG d   1       4.339  -1.127  -4.839  0.00  0.00     0.122 HD
BRANCH  34  36
ATOM     36  C   LIG d   1       2.952   0.036  -5.920  0.00  0.00     0.012 C 
ATOM     37  H   LIG d   1       3.532   0.895  -5.555  0.00  0.00     0.044 H 
ATOM     38  H   LIG d   1       2.020  -0.050  -5.342  0.00  0.00     0.044 H 
BRANCH  36  39
ATOM     39  C   LIG d   1       2.618   0.238  -7.400  0.00  0.00     0.024 C 
ATOM     40  H   LIG d   1       1.531   0.143  -7.546  0.00  0.00     0.047 H 
ATOM     41  H   LIG d   1       3.136  -0.524  -8.000  0.00  0.00     0.047 H 
BRANCH  39  42
ATOM     42  N   LIG d   1       3.053   1.572  -7.821  0.00  0.00    -0.314 N 
ATOM     43  C   LIG d   1       3.822   1.713  -8.920  0.00  0.00     0.210 C 
ATOM     44  O   LIG d   1       4.151   0.736  -9.559  0.00  0.00    -0.276 OA
ATOM     45  H   LIG d   1       2.754   2.456  -7.242  0.00  0.00     0.149 HD
BRANCH  43  46
ATOM     46  C   LIG d   1       4.270   3.084  -9.354  0.00  0.00     0.012 C 
ATOM     47  H   LIG d   1       4.494   3.695  -8.466  0.00  0.00     0.032 H 
ATOM     48  H   LIG d   1       3.470   3.564  -9.936  0.00  0.00     0.032 H 
ATOM     49  H   LIG d   1       5.173   2.995  -9.974  0.00  0.00     0.032 H 
ENDBRANCH  43  46
ENDBRANCH  39  42
ENDBRANCH  36  39
ENDBRANCH  34  36
ENDBRANCH   1  34
BRANCH   4  50
ATOM     50  C   LIG d   1       5.659  -1.721  -4.165  0.00  0.00     0.002 A 
ATOM     51  C   LIG d   1       5.603  -0.516  -3.492  0.00  0.00    -0.035 A 
ATOM     52  C   LIG d   1       4.768  -0.375  -2.396  0.00  0.00     0.041 A 
ATOM     53  H   LIG d   1       6.205   0.317  -3.822  0.00  0.00     0.064 H 
ATOM     54  C   LIG d   1       4.001  -1.443  -1.969  0.00  0.00    -0.043 A 
ATOM     55 CL   LIG d   1       4.691   1.141  -1.554  0.00  0.00    -0.084 Cl
ATOM     56  C   LIG d   1       4.064  -2.650  -2.640  0.00  0.00    -0.060 A 
ATOM     57  H   LIG d   1       3.354  -1.335  -1.111  0.00  0.00     0.063 H 
ATOM     58  C   LIG d   1       4.892  -2.789  -3.737  0.00  0.00    -0.053 A 
ATOM     59  H   LIG d   1       3.465  -3.485  -2.306  0.00  0.00     0.062 H 
ATOM     60  H   LIG d   1       4.940  -3.732  -4.262  0.00  0.00     0.062 H 
ENDBRANCH   4  50
BRANCH   7  61
ATOM     61  C   LIG d   1       8.443  -3.547  -4.313  0.00  0.00     0.356 C 
ATOM     62  O   LIG d   1       9.298  -3.197  -5.092  0.00  0.00    -0.244 OA
BRANCH  61  63
ATOM     63  O   LIG d   1       8.630  -3.383  -2.994  0.00  0.00    -0.464 OA
BRANCH  63  64
ATOM     64  C   LIG d   1       9.646  -4.208  -2.365  0.00  0.00     0.082 C 
ATOM     65  H   LIG d   1      10.152  -3.630  -1.577  0.00  0.00     0.066 H 
ATOM     66  H   LIG d   1      10.382  -4.523  -3.120  0.00  0.00     0.066 H 
ATOM     67  H   LIG d   1       9.174  -5.097  -1.920  0.00  0.00     0.066 H 
ENDBRANCH  63  64
ENDBRANCH  61  63
ENDBRANCH   7  61
TORSDOF 9
ENDMDL
MODEL 4
REMARK VINA RESULT:      -6.1     10.377     14.415
REMARK  9 active torsions:
REMARK  status: ('A' for Active; 'I' for Inactive)
REMARK    1  A    between atoms: C_1  and  C_2 
REMARK       I    between atoms: C_2  and  N_4 
REMARK    2  A    between atoms: N_4  and  C_5 
REMARK    3  A    between atoms: C_5  and  C_6 
REMARK    4  A    between atoms: C_6  and  N_7 
REMARK    5  A    between atoms: N_7  and  C_8 
REMARK    6  A    between atoms: C_11  and  C_34 
REMARK    7  A    between atoms: C_14  and  C_30 
REMARK    8  A    between atoms: C_30  and  O_32 
REMARK    9  A    between atoms: O_32  and  C_33 
ROOT
ATOM      1  C   LIG d   1       9.509   7.552  -0.824  0.00  0.00     0.019 C 
ATOM      2  H   LIG d   1       9.013   6.876  -0.113  0.00  0.00     0.046 H 
ATOM      3  C   LIG d   1       8.916   8.960  -0.730  0.00  0.00     0.010 C 
ATOM      4  C   LIG d   1       9.612   9.876  -1.741  0.00  0.00     0.008 C 
ATOM      5  H   LIG d   1       9.171  10.884  -1.724  0.00  0.00     0.090 H 
ATOM      6  N   LIG d   1       9.439   9.337  -3.094  0.00  0.00     0.258 N 
ATOM      7  C   LIG d   1       9.936  10.259  -4.123  0.00  0.00     0.083 C 
ATOM      8  H   LIG d   1      11.035  10.206  -4.109  0.00  0.00     0.097 H 
ATOM      9  C   LIG d   1       9.383   9.847  -5.493  0.00  0.00     0.029 C 
ATOM     10  C   LIG d   1       9.588   8.362  -5.659  0.00  0.00    -0.008 A 
ATOM     11  C   LIG d   1       9.518   7.557  -6.857  0.00  0.00     0.004 A 
ATOM     12  C   LIG d   1       9.248   7.863  -8.195  0.00  0.00    -0.052 A 
ATOM     13  C   LIG d   1       9.266   6.820  -9.088  0.00  0.00    -0.061 A 
ATOM     14  C   LIG d   1       9.537   5.520  -8.695  0.00  0.00    -0.060 A 
ATOM     15  C   LIG d   1       9.809   5.188  -7.380  0.00  0.00    -0.038 A 
ATOM     16  C   LIG d   1       9.799   6.226  -6.451  0.00  0.00     0.047 A 
ATOM     17  N   LIG d   1      10.020   6.250  -5.103  0.00  0.00    -0.353 N 
ATOM     18  H   LIG d   1      10.259   5.320  -4.569  0.00  0.00     0.166 HD
ATOM     19  C   LIG d   1       9.893   7.530  -4.636  0.00  0.00     0.069 A 
ATOM     20  C   LIG d   1      10.053   8.006  -3.214  0.00  0.00     0.023 C 
ATOM     21  H   LIG d   1      11.121   8.093  -2.961  0.00  0.00     0.092 H 
ATOM     22  C   LIG d   1       9.361   7.034  -2.258  0.00  0.00     0.012 C 
ATOM     23  H   LIG d   1       7.840   8.921  -0.951  0.00  0.00     0.034 H 
ATOM     24  H   LIG d   1       9.068   9.355   0.286  0.00  0.00     0.034 H 
ATOM     25  H   LIG d   1       8.311  10.087  -5.543  0.00  0.00     0.037 H 
ATOM     26  H   LIG d   1       9.918  10.393  -6.284  0.00  0.00     0.037 H 
ATOM     27  H   LIG d   1       9.036   8.874  -8.511  0.00  0.00     0.062 H 
ATOM     28  H   LIG d   1       9.062   7.020 -10.130  0.00  0.00     0.062 H 
ATOM     29  H   LIG d   1       9.536   4.739  -9.441  0.00  0.00     0.062 H 
ATOM     30  H   LIG d   1      10.019   4.170  -7.086  0.00  0.00     0.064 H 
ATOM     31  H   LIG d   1       9.825   6.041  -2.339  0.00  0.00     0.034 H 
ATOM     32  H   LIG d   1       8.292   6.961  -2.512  0.00  0.00     0.034 H 
ATOM     33  H   LIG d   1       8.359   9.229  -3.267  0.00  0.00     0.206 HD
ENDROOT
BRANCH   1  34
ATOM     34  N   LIG d   1      10.933   7.595  -0.463  0.00  0.00    -0.311 N 
ATOM     35  H   LIG d   1      11.125   8.515   0.108  0.00  0.00     0.122 HD
BRANCH  34  36
ATOM     36  C   LIG d   1      11.306   6.428   0.347  0.00  0.00     0.012 C 
ATOM     37  H   LIG d   1      10.397   5.890   0.654  0.00  0.00     0.044 H 
ATOM     38  H   LIG d   1      11.853   6.763   1.241  0.00  0.00     0.044 H 
BRANCH  36  39
ATOM     39  C   LIG d   1      12.197   5.498  -0.478  0.00  0.00     0.024 C 
ATOM     40  H   LIG d   1      13.005   5.106   0.158  0.00  0.00     0.047 H 
ATOM     41  H   LIG d   1      12.632   6.057  -1.319  0.00  0.00     0.047 H 
BRANCH  39  42
ATOM     42  N   LIG d   1      11.396   4.385  -0.993  0.00  0.00    -0.314 N 
ATOM     43  C   LIG d   1      11.333   4.158  -2.320  0.00  0.00     0.210 C 
ATOM     44  O   LIG d   1      11.940   4.876  -3.087  0.00  0.00    -0.276 OA
ATOM     45  H   LIG d   1      10.847   3.735  -0.297  0.00  0.00     0.149 HD
BRANCH  43  46
ATOM     46  C   LIG d   1      10.510   3.014  -2.851  0.00  0.00     0.012 C 
ATOM     47  H   LIG d   1      10.202   3.232  -3.885  0.00  0.00     0.032 H 
ATOM     48  H   LIG d   1       9.617   2.882  -2.223  0.00  0.00     0.032 H 
ATOM     49  H   LIG d   1      11.110   2.092  -2.834  0.00  0.00     0.032 H 
ENDBRANCH  43  46
ENDBRANCH  39  42
ENDBRANCH  36  39
ENDBRANCH  34  36
ENDBRANCH   1  34
BRANCH   4  50
ATOM     50  C   LIG d   1      11.084   9.952  -1.423  0.00  0.00     0.002 A 
ATOM     51  C   LIG d   1      11.500  10.427  -0.194  0.00  0.00    -0.035 A 
ATOM     52  C   LIG d   1      12.852  10.492   0.099  0.00  0.00     0.041 A 
ATOM     53  H   LIG d   1      10.773  10.744   0.538  0.00  0.00     0.064 H 
ATOM     54  C   LIG d   1      13.783  10.091  -0.841  0.00  0.00    -0.043 A 
ATOM     55 CL   LIG d   1      13.376  11.082   1.645  0.00  0.00    -0.084 Cl
ATOM     56  C   LIG d   1      13.364   9.622  -2.072  0.00  0.00    -0.060 A 
ATOM     57  H   LIG d   1      14.838  10.146  -0.614  0.00  0.00     0.063 H 
ATOM     58  C   LIG d   1      12.015   9.552  -2.362  0.00  0.00    -0.053 A 
ATOM     59  H   LIG d   1      14.092   9.310  -2.807  0.00  0.00     0.062 H 
ATOM     60  H   LIG d   1      11.688   9.185  -3.324  0.00  0.00     0.062 H 
ENDBRANCH   4  50
BRANCH   7  61
ATOM     61  C   LIG d   1       9.489  11.660  -3.800  0.00  0.00     0.356 C 
ATOM     62  O   LIG d   1       8.311  11.920  -3.742  0.00  0.00    -0.244 OA
BRANCH  61  63
ATOM     63  O   LIG d   1      10.401  12.621  -3.577  0.00  0.00    -0.464 OA
BRANCH  63  64
ATOM     64  C   LIG d   1      10.182  13.483  -2.429  0.00  0.00     0.082 C 
ATOM     65  H   LIG d   1       9.526  14.318  -2.717  0.00  0.00     0.066 H 
ATOM     66  H   LIG d   1      11.147  13.878  -2.077  0.00  0.00     0.066 H 
ATOM     67  H   LIG d   1       9.706  12.906  -1.622  0.00  0.00     0.066 H 
ENDBRANCH  63  64
ENDBRANCH  61  63
ENDBRANCH   7  61
TORSDOF 9
ENDMDL
MODEL 5
REMARK VINA RESULT:      -6.1      3.467      6.623
REMARK  9 active torsions:
REMARK  status: ('A' for Active; 'I' for Inactive)
REMARK    1  A    between atoms: C_1  and  C_2 
REMARK       I    between atoms: C_2  and  N_4 
REMARK    2  A    between atoms: N_4  and  C_5 
REMARK    3  A    between atoms: C_5  and  C_6 
REMARK    4  A    between atoms: C_6  and  N_7 
REMARK    5  A    between atoms: N_7  and  C_8 
REMARK    6  A    between atoms: C_11  and  C_34 
REMARK    7  A    between atoms: C_14  and  C_30 
REMARK    8  A    between atoms: C_30  and  O_32 
REMARK    9  A    between atoms: O_32  and  C_33 
ROOT
ATOM      1  C   LIG d   1       7.500  -0.229  -5.408  0.00  0.00     0.019 C 
ATOM      2  H   LIG d   1       8.451   0.316  -5.337  0.00  0.00     0.046 H 
ATOM      3  C   LIG d   1       7.668  -1.671  -4.921  0.00  0.00     0.010 C 
ATOM      4  C   LIG d   1       6.334  -2.411  -5.048  0.00  0.00     0.008 C 
ATOM      5  H   LIG d   1       6.441  -3.464  -4.747  0.00  0.00     0.090 H 
ATOM      6  N   LIG d   1       5.890  -2.392  -6.446  0.00  0.00     0.258 N 
ATOM      7  C   LIG d   1       4.706  -3.231  -6.661  0.00  0.00     0.083 C 
ATOM      8  H   LIG d   1       3.840  -2.692  -6.250  0.00  0.00     0.097 H 
ATOM      9  C   LIG d   1       4.528  -3.495  -8.161  0.00  0.00     0.029 C 
ATOM     10  C   LIG d   1       4.653  -2.181  -8.891  0.00  0.00    -0.008 A 
ATOM     11  C   LIG d   1       4.278  -1.847 -10.246  0.00  0.00     0.004 A 
ATOM     12  C   LIG d   1       3.705  -2.589 -11.285  0.00  0.00    -0.052 A 
ATOM     13  C   LIG d   1       3.481  -1.930 -12.469  0.00  0.00    -0.061 A 
ATOM     14  C   LIG d   1       3.805  -0.594 -12.640  0.00  0.00    -0.060 A 
ATOM     15  C   LIG d   1       4.370   0.164 -11.631  0.00  0.00    -0.038 A 
ATOM     16  C   LIG d   1       4.608  -0.477 -10.417  0.00  0.00     0.047 A 
ATOM     17  N   LIG d   1       5.141  -0.038  -9.238  0.00  0.00    -0.353 N 
ATOM     18  H   LIG d   1       5.471   1.007  -9.141  0.00  0.00     0.166 HD
ATOM     19  C   LIG d   1       5.166  -1.061  -8.331  0.00  0.00     0.069 A 
ATOM     20  C   LIG d   1       5.672  -1.014  -6.911  0.00  0.00     0.023 C 
ATOM     21  H   LIG d   1       4.923  -0.542  -6.257  0.00  0.00     0.092 H 
ATOM     22  C   LIG d   1       6.988  -0.238  -6.852  0.00  0.00     0.012 C 
ATOM     23  H   LIG d   1       8.429  -2.178  -5.532  0.00  0.00     0.034 H 
ATOM     24  H   LIG d   1       7.986  -1.667  -3.868  0.00  0.00     0.034 H 
ATOM     25  H   LIG d   1       5.305  -4.194  -8.506  0.00  0.00     0.037 H 
ATOM     26  H   LIG d   1       3.535  -3.934  -8.342  0.00  0.00     0.037 H 
ATOM     27  H   LIG d   1       3.449  -3.630 -11.161  0.00  0.00     0.062 H 
ATOM     28  H   LIG d   1       3.040  -2.472 -13.293  0.00  0.00     0.062 H 
ATOM     29  H   LIG d   1       3.607  -0.128 -13.595  0.00  0.00     0.062 H 
ATOM     30  H   LIG d   1       4.618   1.205 -11.777  0.00  0.00     0.064 H 
ATOM     31  H   LIG d   1       6.824   0.796  -7.190  0.00  0.00     0.034 H 
ATOM     32  H   LIG d   1       7.733  -0.723  -7.502  0.00  0.00     0.034 H 
ATOM     33  H   LIG d   1       6.698  -2.830  -7.051  0.00  0.00     0.206 HD
ENDROOT
BRANCH   1  34
ATOM     34  N   LIG d   1       6.532   0.468  -4.550  0.00  0.00    -0.311 N 
ATOM     35  H   LIG d   1       5.995  -0.277  -3.946  0.00  0.00     0.122 HD
BRANCH  34  36
ATOM     36  C   LIG d   1       7.209   1.423  -3.663  0.00  0.00     0.012 C 
ATOM     37  H   LIG d   1       7.371   0.958  -2.680  0.00  0.00     0.044 H 
ATOM     38  H   LIG d   1       6.583   2.320  -3.545  0.00  0.00     0.044 H 
BRANCH  36  39
ATOM     39  C   LIG d   1       8.557   1.818  -4.270  0.00  0.00     0.024 C 
ATOM     40  H   LIG d   1       8.490   1.776  -5.367  0.00  0.00     0.047 H 
ATOM     41  H   LIG d   1       9.333   1.120  -3.923  0.00  0.00     0.047 H 
BRANCH  39  42
ATOM     42  N   LIG d   1       8.900   3.179  -3.852  0.00  0.00    -0.314 N 
ATOM     43  C   LIG d   1       9.925   3.383  -3.000  0.00  0.00     0.210 C 
ATOM     44  O   LIG d   1      10.562   2.440  -2.581  0.00  0.00    -0.276 OA
ATOM     45  H   LIG d   1       8.323   4.033  -4.233  0.00  0.00     0.149 HD
BRANCH  43  46
ATOM     46  C   LIG d   1      10.280   4.783  -2.570  0.00  0.00     0.012 C 
ATOM     47  H   LIG d   1      10.791   5.302  -3.396  0.00  0.00     0.032 H 
ATOM     48  H   LIG d   1      10.945   4.741  -1.696  0.00  0.00     0.032 H 
ATOM     49  H   LIG d   1       9.362   5.329  -2.307  0.00  0.00     0.032 H 
ENDBRANCH  43  46
ENDBRANCH  39  42
ENDBRANCH  36  39
ENDBRANCH  34  36
ENDBRANCH   1  34
BRANCH   4  50
ATOM     50  C   LIG d   1       5.297  -1.732  -4.190  0.00  0.00     0.002 A 
ATOM     51  C   LIG d   1       4.209  -1.118  -4.780  0.00  0.00    -0.035 A 
ATOM     52  C   LIG d   1       3.254  -0.499  -3.991  0.00  0.00     0.041 A 
ATOM     53  H   LIG d   1       4.100  -1.124  -5.854  0.00  0.00     0.064 H 
ATOM     54  C   LIG d   1       3.396  -0.486  -2.616  0.00  0.00    -0.043 A 
ATOM     55 CL   LIG d   1       1.882   0.266  -4.730  0.00  0.00    -0.084 Cl
ATOM     56  C   LIG d   1       4.489  -1.095  -2.029  0.00  0.00    -0.060 A 
ATOM     57  H   LIG d   1       2.654   0.002  -2.001  0.00  0.00     0.063 H 
ATOM     58  C   LIG d   1       5.439  -1.718  -2.815  0.00  0.00    -0.053 A 
ATOM     59  H   LIG d   1       4.600  -1.084  -0.954  0.00  0.00     0.062 H 
ATOM     60  H   LIG d   1       6.292  -2.195  -2.356  0.00  0.00     0.062 H 
ENDBRANCH   4  50
BRANCH   7  61
ATOM     61  C   LIG d   1       4.880  -4.541  -5.936  0.00  0.00     0.356 C 
ATOM     62  O   LIG d   1       4.119  -4.846  -5.049  0.00  0.00    -0.244 OA
BRANCH  61  63
ATOM     63  O   LIG d   1       5.881  -5.369  -6.277  0.00  0.00    -0.464 OA
BRANCH  63  64
ATOM     64  C   LIG d   1       5.848  -6.707  -5.716  0.00  0.00     0.082 C 
ATOM     65  H   LIG d   1       6.233  -7.425  -6.456  0.00  0.00     0.066 H 
ATOM     66  H   LIG d   1       4.812  -6.970  -5.455  0.00  0.00     0.066 H 
ATOM     67  H   LIG d   1       6.473  -6.742  -4.812  0.00  0.00     0.066 H 
ENDBRANCH  63  64
ENDBRANCH  61  63
ENDBRANCH   7  61
TORSDOF 9
ENDMDL
MODEL 6
REMARK VINA RESULT:      -6.0      2.517      4.021
REMARK  9 active torsions:
REMARK  status: ('A' for Active; 'I' for Inactive)
REMARK    1  A    between atoms: C_1  and  C_2 
REMARK       I    between atoms: C_2  and  N_4 
REMARK    2  A    between atoms: N_4  and  C_5 
REMARK    3  A    between atoms: C_5  and  C_6 
REMARK    4  A    between atoms: C_6  and  N_7 
REMARK    5  A    between atoms: N_7  and  C_8 
REMARK    6  A    between atoms: C_11  and  C_34 
REMARK    7  A    between atoms: C_14  and  C_30 
REMARK    8  A    between atoms: C_30  and  O_32 
REMARK    9  A    between atoms: O_32  and  C_33 
ROOT
ATOM      1  C   LIG d   1       4.741  -6.130  -6.204  0.00  0.00     0.019 C 
ATOM      2  H   LIG d   1       3.991  -6.932  -6.147  0.00  0.00     0.046 H 
ATOM      3  C   LIG d   1       6.095  -6.621  -5.687  0.00  0.00     0.010 C 
ATOM      4  C   LIG d   1       7.115  -5.481  -5.762  0.00  0.00     0.008 C 
ATOM      5  H   LIG d   1       8.085  -5.797  -5.352  0.00  0.00     0.090 H 
ATOM      6  N   LIG d   1       6.643  -4.345  -4.962  0.00  0.00     0.258 N 
ATOM      7  C   LIG d   1       7.654  -3.288  -4.854  0.00  0.00     0.083 C 
ATOM      8  H   LIG d   1       7.680  -2.757  -5.817  0.00  0.00     0.097 H 
ATOM      9  C   LIG d   1       7.283  -2.335  -3.711  0.00  0.00     0.029 C 
ATOM     10  C   LIG d   1       5.829  -1.964  -3.858  0.00  0.00    -0.008 A 
ATOM     11  C   LIG d   1       5.090  -0.891  -3.233  0.00  0.00     0.004 A 
ATOM     12  C   LIG d   1       5.452   0.112  -2.326  0.00  0.00    -0.052 A 
ATOM     13  C   LIG d   1       4.466   0.984  -1.937  0.00  0.00    -0.061 A 
ATOM     14  C   LIG d   1       3.168   0.886  -2.411  0.00  0.00    -0.060 A 
ATOM     15  C   LIG d   1       2.781  -0.093  -3.309  0.00  0.00    -0.038 A 
ATOM     16  C   LIG d   1       3.761  -0.993  -3.722  0.00  0.00     0.047 A 
ATOM     17  N   LIG d   1       3.725  -2.056  -4.580  0.00  0.00    -0.353 N 
ATOM     18  H   LIG d   1       2.785  -2.323  -5.083  0.00  0.00     0.166 HD
ATOM     19  C   LIG d   1       4.963  -2.632  -4.656  0.00  0.00     0.069 A 
ATOM     20  C   LIG d   1       5.368  -3.828  -5.481  0.00  0.00     0.023 C 
ATOM     21  H   LIG d   1       5.516  -3.532  -6.531  0.00  0.00     0.092 H 
ATOM     22  C   LIG d   1       4.296  -4.914  -5.385  0.00  0.00     0.012 C 
ATOM     23  H   LIG d   1       5.992  -6.954  -4.645  0.00  0.00     0.034 H 
ATOM     24  H   LIG d   1       6.441  -7.462  -6.307  0.00  0.00     0.034 H 
ATOM     25  H   LIG d   1       7.448  -2.837  -2.746  0.00  0.00     0.037 H 
ATOM     26  H   LIG d   1       7.910  -1.433  -3.767  0.00  0.00     0.037 H 
ATOM     27  H   LIG d   1       6.461   0.196  -1.952  0.00  0.00     0.062 H 
ATOM     28  H   LIG d   1       4.710   1.771  -1.238  0.00  0.00     0.062 H 
ATOM     29  H   LIG d   1       2.433   1.600  -2.069  0.00  0.00     0.062 H 
ATOM     30  H   LIG d   1       1.766  -0.159  -3.671  0.00  0.00     0.064 H 
ATOM     31  H   LIG d   1       3.344  -4.532  -5.783  0.00  0.00     0.034 H 
ATOM     32  H   LIG d   1       4.162  -5.210  -4.333  0.00  0.00     0.034 H 
ATOM     33  H   LIG d   1       6.468  -4.716  -3.941  0.00  0.00     0.206 HD
ENDROOT
BRANCH   1  34
ATOM     34  N   LIG d   1       4.865  -5.749  -7.618  0.00  0.00    -0.311 N 
ATOM     35  H   LIG d   1       5.406  -6.544  -8.151  0.00  0.00     0.122 HD
BRANCH  34  36
ATOM     36  C   LIG d   1       3.543  -5.559  -8.230  0.00  0.00     0.012 C 
ATOM     37  H   LIG d   1       2.788  -5.438  -7.440  0.00  0.00     0.044 H 
ATOM     38  H   LIG d   1       3.293  -6.438  -8.843  0.00  0.00     0.044 H 
BRANCH  36  39
ATOM     39  C   LIG d   1       3.564  -4.310  -9.113  0.00  0.00     0.024 C 
ATOM     40  H   LIG d   1       2.847  -4.433  -9.938  0.00  0.00     0.047 H 
ATOM     41  H   LIG d   1       4.575  -4.168  -9.524  0.00  0.00     0.047 H 
BRANCH  39  42
ATOM     42  N   LIG d   1       3.194  -3.140  -8.312  0.00  0.00    -0.314 N 
ATOM     43  C   LIG d   1       3.549  -1.905  -8.720  0.00  0.00     0.210 C 
ATOM     44  O   LIG d   1       4.174  -1.763  -9.750  0.00  0.00    -0.276 OA
ATOM     45  H   LIG d   1       2.627  -3.270  -7.380  0.00  0.00     0.149 HD
BRANCH  43  46
ATOM     46  C   LIG d   1       3.168  -0.702  -7.898  0.00  0.00     0.012 C 
ATOM     47  H   LIG d   1       3.272  -0.941  -6.828  0.00  0.00     0.032 H 
ATOM     48  H   LIG d   1       2.126  -0.426  -8.112  0.00  0.00     0.032 H 
ATOM     49  H   LIG d   1       3.830   0.139  -8.151  0.00  0.00     0.032 H 
ENDBRANCH  43  46
ENDBRANCH  39  42
ENDBRANCH  36  39
ENDBRANCH  34  36
ENDBRANCH   1  34
BRANCH   4  50
ATOM     50  C   LIG d   1       7.277  -5.043  -7.195  0.00  0.00     0.002 A 
ATOM     51  C   LIG d   1       7.702  -5.947  -8.149  0.00  0.00    -0.035 A 
ATOM     52  C   LIG d   1       7.846  -5.546  -9.466  0.00  0.00     0.041 A 
ATOM     53  H   LIG d   1       7.917  -6.967  -7.869  0.00  0.00     0.064 H 
ATOM     54  C   LIG d   1       7.576  -4.237  -9.823  0.00  0.00    -0.043 A 
ATOM     55 CL   LIG d   1       8.372  -6.683 -10.667  0.00  0.00    -0.084 Cl
ATOM     56  C   LIG d   1       7.157  -3.333  -8.865  0.00  0.00    -0.060 A 
ATOM     57  H   LIG d   1       7.693  -3.922 -10.850  0.00  0.00     0.063 H 
ATOM     58  C   LIG d   1       7.008  -3.735  -7.552  0.00  0.00    -0.053 A 
ATOM     59  H   LIG d   1       6.947  -2.310  -9.144  0.00  0.00     0.062 H 
ATOM     60  H   LIG d   1       6.680  -3.027  -6.804  0.00  0.00     0.062 H 
ENDBRANCH   4  50
BRANCH   7  61
ATOM     61  C   LIG d   1       9.000  -3.906  -4.578  0.00  0.00     0.356 C 
ATOM     62  O   LIG d   1       9.912  -3.740  -5.352  0.00  0.00    -0.244 OA
BRANCH  61  63
ATOM     63  O   LIG d   1       9.186  -4.643  -3.470  0.00  0.00    -0.464 OA
BRANCH  63  64
ATOM     64  C   LIG d   1      10.376  -4.366  -2.687  0.00  0.00     0.082 C 
ATOM     65  H   LIG d   1      10.084  -3.968  -1.704  0.00  0.00     0.066 H 
ATOM     66  H   LIG d   1      10.998  -3.627  -3.213  0.00  0.00     0.066 H 
ATOM     67  H   LIG d   1      10.949  -5.295  -2.550  0.00  0.00     0.066 H 
ENDBRANCH  63  64
ENDBRANCH  61  63
ENDBRANCH   7  61
TORSDOF 9
ENDMDL
MODEL 7
REMARK VINA RESULT:      -6.0      3.635      5.872
REMARK  9 active torsions:
REMARK  status: ('A' for Active; 'I' for Inactive)
REMARK    1  A    between atoms: C_1  and  C_2 
REMARK       I    between atoms: C_2  and  N_4 
REMARK    2  A    between atoms: N_4  and  C_5 
REMARK    3  A    between atoms: C_5  and  C_6 
REMARK    4  A    between atoms: C_6  and  N_7 
REMARK    5  A    between atoms: N_7  and  C_8 
REMARK    6  A    between atoms: C_11  and  C_34 
REMARK    7  A    between atoms: C_14  and  C_30 
REMARK    8  A    between atoms: C_30  and  O_32 
REMARK    9  A    between atoms: O_32  and  C_33 
ROOT
ATOM      1  C   LIG d   1       5.160  -0.699  -3.285  0.00  0.00     0.019 C 
ATOM      2  H   LIG d   1       4.942  -0.148  -2.360  0.00  0.00     0.046 H 
ATOM      3  C   LIG d   1       3.928  -1.480  -3.749  0.00  0.00     0.010 C 
ATOM      4  C   LIG d   1       4.264  -2.251  -5.029  0.00  0.00     0.008 C 
ATOM      5  H   LIG d   1       3.407  -2.858  -5.357  0.00  0.00     0.090 H 
ATOM      6  N   LIG d   1       5.383  -3.165  -4.774  0.00  0.00     0.258 N 
ATOM      7  C   LIG d   1       5.640  -4.054  -5.913  0.00  0.00     0.083 C 
ATOM      8  H   LIG d   1       6.142  -3.459  -6.689  0.00  0.00     0.097 H 
ATOM      9  C   LIG d   1       6.522  -5.226  -5.462  0.00  0.00     0.029 C 
ATOM     10  C   LIG d   1       7.681  -4.670  -4.673  0.00  0.00    -0.008 A 
ATOM     11  C   LIG d   1       8.921  -5.308  -4.294  0.00  0.00     0.004 A 
ATOM     12  C   LIG d   1       9.438  -6.589  -4.516  0.00  0.00    -0.052 A 
ATOM     13  C   LIG d   1      10.681  -6.857  -3.997  0.00  0.00    -0.061 A 
ATOM     14  C   LIG d   1      11.399  -5.911  -3.285  0.00  0.00    -0.060 A 
ATOM     15  C   LIG d   1      10.914  -4.636  -3.052  0.00  0.00    -0.038 A 
ATOM     16  C   LIG d   1       9.656  -4.336  -3.567  0.00  0.00     0.047 A 
ATOM     17  N   LIG d   1       8.896  -3.201  -3.524  0.00  0.00    -0.353 N 
ATOM     18  H   LIG d   1       9.272  -2.308  -3.005  0.00  0.00     0.166 HD
ATOM     19  C   LIG d   1       7.717  -3.407  -4.186  0.00  0.00     0.069 A 
ATOM     20  C   LIG d   1       6.590  -2.423  -4.380  0.00  0.00     0.023 C 
ATOM     21  H   LIG d   1       6.840  -1.715  -5.184  0.00  0.00     0.092 H 
ATOM     22  C   LIG d   1       6.326  -1.670  -3.075  0.00  0.00     0.012 C 
ATOM     23  H   LIG d   1       3.624  -2.187  -2.964  0.00  0.00     0.034 H 
ATOM     24  H   LIG d   1       3.104  -0.779  -3.950  0.00  0.00     0.034 H 
ATOM     25  H   LIG d   1       5.931  -5.909  -4.833  0.00  0.00     0.037 H 
ATOM     26  H   LIG d   1       6.892  -5.768  -6.345  0.00  0.00     0.037 H 
ATOM     27  H   LIG d   1       8.885  -7.333  -5.070  0.00  0.00     0.062 H 
ATOM     28  H   LIG d   1      11.111  -7.836  -4.149  0.00  0.00     0.062 H 
ATOM     29  H   LIG d   1      12.373  -6.177  -2.899  0.00  0.00     0.062 H 
ATOM     30  H   LIG d   1      11.485  -3.907  -2.495  0.00  0.00     0.064 H 
ATOM     31  H   LIG d   1       7.225  -1.106  -2.784  0.00  0.00     0.034 H 
ATOM     32  H   LIG d   1       6.069  -2.386  -2.279  0.00  0.00     0.034 H 
ATOM     33  H   LIG d   1       5.092  -3.811  -3.932  0.00  0.00     0.206 HD
ENDROOT
BRANCH   1  34
ATOM     34  N   LIG d   1       5.525   0.292  -4.307  0.00  0.00    -0.311 N 
ATOM     35  H   LIG d   1       4.615   0.815  -4.632  0.00  0.00     0.122 HD
BRANCH  34  36
ATOM     36  C   LIG d   1       6.487   1.266  -3.775  0.00  0.00     0.012 C 
ATOM     37  H   LIG d   1       6.723   1.015  -2.730  0.00  0.00     0.044 H 
ATOM     38  H   LIG d   1       6.051   2.274  -3.820  0.00  0.00     0.044 H 
BRANCH  36  39
ATOM     39  C   LIG d   1       7.768   1.226  -4.611  0.00  0.00     0.024 C 
ATOM     40  H   LIG d   1       7.733   2.020  -5.372  0.00  0.00     0.047 H 
ATOM     41  H   LIG d   1       7.854   0.248  -5.106  0.00  0.00     0.047 H 
BRANCH  39  42
ATOM     42  N   LIG d   1       8.926   1.436  -3.739  0.00  0.00    -0.314 N 
ATOM     43  C   LIG d   1       9.514   2.649  -3.680  0.00  0.00     0.210 C 
ATOM     44  O   LIG d   1       9.083   3.564  -4.349  0.00  0.00    -0.276 OA
ATOM     45  H   LIG d   1       9.316   0.607  -3.133  0.00  0.00     0.149 HD
BRANCH  43  46
ATOM     46  C   LIG d   1      10.705   2.866  -2.783  0.00  0.00     0.012 C 
ATOM     47  H   LIG d   1      10.743   3.922  -2.475  0.00  0.00     0.032 H 
ATOM     48  H   LIG d   1      11.625   2.609  -3.327  0.00  0.00     0.032 H 
ATOM     49  H   LIG d   1      10.614   2.228  -1.893  0.00  0.00     0.032 H 
ENDBRANCH  43  46
ENDBRANCH  39  42
ENDBRANCH  36  39
ENDBRANCH  34  36
ENDBRANCH   1  34
BRANCH   4  50
ATOM     50  C   LIG d   1       4.655  -1.281  -6.114  0.00  0.00     0.002 A 
ATOM     51  C   LIG d   1       3.733  -0.368  -6.588  0.00  0.00    -0.035 A 
ATOM     52  C   LIG d   1       4.094   0.526  -7.582  0.00  0.00     0.041 A 
ATOM     53  H   LIG d   1       2.733  -0.349  -6.182  0.00  0.00     0.064 H 
ATOM     54  C   LIG d   1       5.374   0.497  -8.106  0.00  0.00    -0.043 A 
ATOM     55 CL   LIG d   1       2.939   1.679  -8.172  0.00  0.00    -0.084 Cl
ATOM     56  C   LIG d   1       6.292  -0.422  -7.634  0.00  0.00    -0.060 A 
ATOM     57  H   LIG d   1       5.654   1.192  -8.884  0.00  0.00     0.063 H 
ATOM     58  C   LIG d   1       5.934  -1.310  -6.639  0.00  0.00    -0.053 A 
ATOM     59  H   LIG d   1       7.292  -0.445  -8.045  0.00  0.00     0.062 H 
ATOM     60  H   LIG d   1       6.652  -2.028  -6.271  0.00  0.00     0.062 H 
ENDBRANCH   4  50
BRANCH   7  61
ATOM     61  C   LIG d   1       4.333  -4.583  -6.443  0.00  0.00     0.356 C 
ATOM     62  O   LIG d   1       3.665  -5.330  -5.768  0.00  0.00    -0.244 OA
BRANCH  61  63
ATOM     63  O   LIG d   1       3.909  -4.223  -7.665  0.00  0.00    -0.464 OA
BRANCH  63  64
ATOM     64  C   LIG d   1       4.901  -4.197  -8.725  0.00  0.00     0.082 C 
ATOM     65  H   LIG d   1       5.571  -3.337  -8.579  0.00  0.00     0.066 H 
ATOM     66  H   LIG d   1       4.396  -4.109  -9.698  0.00  0.00     0.066 H 
ATOM     67  H   LIG d   1       5.489  -5.127  -8.700  0.00  0.00     0.066 H 
ENDBRANCH  63  64
ENDBRANCH  61  63
ENDBRANCH   7  61
TORSDOF 9
ENDMDL
MODEL 8
REMARK VINA RESULT:      -5.9      2.058      5.258
REMARK  9 active torsions:
REMARK  status: ('A' for Active; 'I' for Inactive)
REMARK    1  A    between atoms: C_1  and  C_2 
REMARK       I    between atoms: C_2  and  N_4 
REMARK    2  A    between atoms: N_4  and  C_5 
REMARK    3  A    between atoms: C_5  and  C_6 
REMARK    4  A    between atoms: C_6  and  N_7 
REMARK    5  A    between atoms: N_7  and  C_8 
REMARK    6  A    between atoms: C_11  and  C_34 
REMARK    7  A    between atoms: C_14  and  C_30 
REMARK    8  A    between atoms: C_30  and  O_32 
REMARK    9  A    between atoms: O_32  and  C_33 
ROOT
ATOM      1  C   LIG d   1       4.912  -3.999  -9.343  0.00  0.00     0.019 C 
ATOM      2  H   LIG d   1       5.271  -5.027  -9.492  0.00  0.00     0.046 H 
ATOM      3  C   LIG d   1       5.788  -3.006 -10.111  0.00  0.00     0.010 C 
ATOM      4  C   LIG d   1       5.277  -1.583  -9.872  0.00  0.00     0.008 C 
ATOM      5  H   LIG d   1       5.920  -0.847 -10.377  0.00  0.00     0.090 H 
ATOM      6  N   LIG d   1       5.305  -1.284  -8.436  0.00  0.00     0.258 N 
ATOM      7  C   LIG d   1       4.989   0.122  -8.158  0.00  0.00     0.083 C 
ATOM      8  H   LIG d   1       3.905   0.249  -8.289  0.00  0.00     0.097 H 
ATOM      9  C   LIG d   1       5.415   0.471  -6.726  0.00  0.00     0.029 C 
ATOM     10  C   LIG d   1       4.900  -0.605  -5.804  0.00  0.00    -0.008 A 
ATOM     11  C   LIG d   1       4.775  -0.594  -4.364  0.00  0.00     0.004 A 
ATOM     12  C   LIG d   1       5.074   0.365  -3.390  0.00  0.00    -0.052 A 
ATOM     13  C   LIG d   1       4.819   0.026  -2.084  0.00  0.00    -0.061 A 
ATOM     14  C   LIG d   1       4.290  -1.205  -1.734  0.00  0.00    -0.060 A 
ATOM     15  C   LIG d   1       3.983  -2.172  -2.675  0.00  0.00    -0.038 A 
ATOM     16  C   LIG d   1       4.231  -1.856  -4.009  0.00  0.00     0.047 A 
ATOM     17  N   LIG d   1       4.048  -2.560  -5.165  0.00  0.00    -0.353 N 
ATOM     18  H   LIG d   1       3.631  -3.577  -5.129  0.00  0.00     0.166 HD
ATOM     19  C   LIG d   1       4.450  -1.807  -6.234  0.00  0.00     0.069 A 
ATOM     20  C   LIG d   1       4.424  -2.197  -7.691  0.00  0.00     0.023 C 
ATOM     21  H   LIG d   1       3.403  -2.097  -8.092  0.00  0.00     0.092 H 
ATOM     22  C   LIG d   1       4.918  -3.634  -7.855  0.00  0.00     0.012 C 
ATOM     23  H   LIG d   1       6.828  -3.087  -9.762  0.00  0.00     0.034 H 
ATOM     24  H   LIG d   1       5.744  -3.235 -11.187  0.00  0.00     0.034 H 
ATOM     25  H   LIG d   1       6.512   0.521  -6.671  0.00  0.00     0.037 H 
ATOM     26  H   LIG d   1       4.989   1.445  -6.444  0.00  0.00     0.037 H 
ATOM     27  H   LIG d   1       5.486   1.328  -3.654  0.00  0.00     0.062 H 
ATOM     28  H   LIG d   1       5.038   0.742  -1.306  0.00  0.00     0.062 H 
ATOM     29  H   LIG d   1       4.111  -1.418  -0.690  0.00  0.00     0.062 H 
ATOM     30  H   LIG d   1       3.571  -3.129  -2.389  0.00  0.00     0.064 H 
ATOM     31  H   LIG d   1       4.254  -4.319  -7.307  0.00  0.00     0.034 H 
ATOM     32  H   LIG d   1       5.942  -3.722  -7.460  0.00  0.00     0.034 H 
ATOM     33  H   LIG d   1       6.335  -1.449  -8.088  0.00  0.00     0.206 HD
ENDROOT
BRANCH   1  34
ATOM     34  N   LIG d   1       3.537  -3.938  -9.857  0.00  0.00    -0.311 N 
ATOM     35  H   LIG d   1       3.573  -3.848 -10.952  0.00  0.00     0.122 HD
BRANCH  34  36
ATOM     36  C   LIG d   1       2.784  -5.144  -9.489  0.00  0.00     0.012 C 
ATOM     37  H   LIG d   1       1.840  -5.173 -10.053  0.00  0.00     0.044 H 
ATOM     38  H   LIG d   1       2.565  -5.125  -8.411  0.00  0.00     0.044 H 
BRANCH  36  39
ATOM     39  C   LIG d   1       3.615  -6.386  -9.819  0.00  0.00     0.024 C 
ATOM     40  H   LIG d   1       4.657  -6.089 -10.010  0.00  0.00     0.047 H 
ATOM     41  H   LIG d   1       3.203  -6.875 -10.714  0.00  0.00     0.047 H 
BRANCH  39  42
ATOM     42  N   LIG d   1       3.571  -7.317  -8.689  0.00  0.00    -0.314 N 
ATOM     43  C   LIG d   1       4.711  -7.663  -8.057  0.00  0.00     0.210 C 
ATOM     44  O   LIG d   1       5.772  -7.204  -8.425  0.00  0.00    -0.276 OA
ATOM     45  H   LIG d   1       2.610  -7.732  -8.355  0.00  0.00     0.149 HD
BRANCH  43  46
ATOM     46  C   LIG d   1       4.667  -8.620  -6.894  0.00  0.00     0.012 C 
ATOM     47  H   LIG d   1       3.824  -9.316  -7.024  0.00  0.00     0.032 H 
ATOM     48  H   LIG d   1       4.536  -8.056  -5.960  0.00  0.00     0.032 H 
ATOM     49  H   LIG d   1       5.608  -9.188  -6.852  0.00  0.00     0.032 H 
ENDBRANCH  43  46
ENDBRANCH  39  42
ENDBRANCH  36  39
ENDBRANCH  34  36
ENDBRANCH   1  34
BRANCH   4  50
ATOM     50  C   LIG d   1       3.862  -1.464 -10.375  0.00  0.00     0.002 A 
ATOM     51  C   LIG d   1       3.576  -1.727 -11.701  0.00  0.00    -0.035 A 
ATOM     52  C   LIG d   1       2.275  -1.623 -12.162  0.00  0.00     0.041 A 
ATOM     53  H   LIG d   1       4.366  -2.018 -12.377  0.00  0.00     0.064 H 
ATOM     54  C   LIG d   1       1.264  -1.244 -11.297  0.00  0.00    -0.043 A 
ATOM     55 CL   LIG d   1       1.914  -1.961 -13.825  0.00  0.00    -0.084 Cl
ATOM     56  C   LIG d   1       1.553  -0.975  -9.972  0.00  0.00    -0.060 A 
ATOM     57  H   LIG d   1       0.250  -1.158 -11.658  0.00  0.00     0.063 H 
ATOM     58  C   LIG d   1       2.851  -1.085  -9.512  0.00  0.00    -0.053 A 
ATOM     59  H   LIG d   1       0.763  -0.678  -9.297  0.00  0.00     0.062 H 
ATOM     60  H   LIG d   1       3.076  -0.875  -8.476  0.00  0.00     0.062 H 
ENDBRANCH   4  50
BRANCH   7  61
ATOM     61  C   LIG d   1       5.727   1.003  -9.132  0.00  0.00     0.356 C 
ATOM     62  O   LIG d   1       6.935   1.009  -9.147  0.00  0.00    -0.244 OA
BRANCH  61  63
ATOM     63  O   LIG d   1       5.041   1.784  -9.983  0.00  0.00    -0.464 OA
BRANCH  63  64
ATOM     64  C   LIG d   1       3.930   2.540  -9.434  0.00  0.00     0.082 C 
ATOM     65  H   LIG d   1       3.127   1.849  -9.137  0.00  0.00     0.066 H 
ATOM     66  H   LIG d   1       3.550   3.239 -10.194  0.00  0.00     0.066 H 
ATOM     67  H   LIG d   1       4.270   3.106  -8.554  0.00  0.00     0.066 H 
ENDBRANCH  63  64
ENDBRANCH  61  63
ENDBRANCH   7  61
TORSDOF 9
ENDMDL
MODEL 9
REMARK VINA RESULT:      -5.8      2.110      4.601
REMARK  9 active torsions:
REMARK  status: ('A' for Active; 'I' for Inactive)
REMARK    1  A    between atoms: C_1  and  C_2 
REMARK       I    between atoms: C_2  and  N_4 
REMARK    2  A    between atoms: N_4  and  C_5 
REMARK    3  A    between atoms: C_5  and  C_6 
REMARK    4  A    between atoms: C_6  and  N_7 
REMARK    5  A    between atoms: N_7  and  C_8 
REMARK    6  A    between atoms: C_11  and  C_34 
REMARK    7  A    between atoms: C_14  and  C_30 
REMARK    8  A    between atoms: C_30  and  O_32 
REMARK    9  A    between atoms: O_32  and  C_33 
ROOT
ATOM      1  C   LIG d   1       7.032  -2.200  -9.030  0.00  0.00     0.019 C 
ATOM      2  H   LIG d   1       8.100  -2.138  -9.282  0.00  0.00     0.046 H 
ATOM      3  C   LIG d   1       6.188  -1.477 -10.082  0.00  0.00     0.010 C 
ATOM      4  C   LIG d   1       4.708  -1.564  -9.698  0.00  0.00     0.008 C 
ATOM      5  H   LIG d   1       4.085  -1.011 -10.416  0.00  0.00     0.090 H 
ATOM      6  N   LIG d   1       4.506  -0.959  -8.377  0.00  0.00     0.258 N 
ATOM      7  C   LIG d   1       3.085  -0.858  -8.028  0.00  0.00     0.083 C 
ATOM      8  H   LIG d   1       2.739  -1.866  -7.756  0.00  0.00     0.097 H 
ATOM      9  C   LIG d   1       2.911   0.118  -6.857  0.00  0.00     0.029 C 
ATOM     10  C   LIG d   1       3.917  -0.238  -5.791  0.00  0.00    -0.008 A 
ATOM     11  C   LIG d   1       3.966   0.171  -4.406  0.00  0.00     0.004 A 
ATOM     12  C   LIG d   1       3.144   0.992  -3.626  0.00  0.00    -0.052 A 
ATOM     13  C   LIG d   1       3.503   1.162  -2.311  0.00  0.00    -0.061 A 
ATOM     14  C   LIG d   1       4.624   0.555  -1.770  0.00  0.00    -0.060 A 
ATOM     15  C   LIG d   1       5.454  -0.262  -2.517  0.00  0.00    -0.038 A 
ATOM     16  C   LIG d   1       5.115  -0.454  -3.854  0.00  0.00     0.047 A 
ATOM     17  N   LIG d   1       5.700  -1.182  -4.851  0.00  0.00    -0.353 N 
ATOM     18  H   LIG d   1       6.615  -1.757  -4.648  0.00  0.00     0.166 HD
ATOM     19  C   LIG d   1       4.980  -1.048  -6.007  0.00  0.00     0.069 A 
ATOM     20  C   LIG d   1       5.270  -1.678  -7.346  0.00  0.00     0.023 C 
ATOM     21  H   LIG d   1       4.948  -2.731  -7.347  0.00  0.00     0.092 H 
ATOM     22  C   LIG d   1       6.764  -1.582  -7.654  0.00  0.00     0.012 C 
ATOM     23  H   LIG d   1       6.492  -0.422 -10.136  0.00  0.00     0.034 H 
ATOM     24  H   LIG d   1       6.340  -1.953 -11.063  0.00  0.00     0.034 H 
ATOM     25  H   LIG d   1       3.081   1.146  -7.208  0.00  0.00     0.037 H 
ATOM     26  H   LIG d   1       1.890   0.032  -6.456  0.00  0.00     0.037 H 
ATOM     27  H   LIG d   1       2.268   1.468  -4.039  0.00  0.00     0.062 H 
ATOM     28  H   LIG d   1       2.890   1.789  -1.680  0.00  0.00     0.062 H 
ATOM     29  H   LIG d   1       4.859   0.726  -0.730  0.00  0.00     0.062 H 
ATOM     30  H   LIG d   1       6.326  -0.730  -2.083  0.00  0.00     0.064 H 
ATOM     31  H   LIG d   1       7.336  -2.129  -6.889  0.00  0.00     0.034 H 
ATOM     32  H   LIG d   1       7.075  -0.526  -7.659  0.00  0.00     0.034 H 
ATOM     33  H   LIG d   1       4.891   0.070  -8.427  0.00  0.00     0.206 HD
ENDROOT
BRANCH   1  34
ATOM     34  N   LIG d   1       6.672  -3.624  -9.006  0.00  0.00    -0.311 N 
ATOM     35  H   LIG d   1       6.365  -3.927 -10.017  0.00  0.00     0.122 HD
BRANCH  34  36
ATOM     36  C   LIG d   1       7.808  -4.447  -8.571  0.00  0.00     0.012 C 
ATOM     37  H   LIG d   1       8.673  -3.800  -8.370  0.00  0.00     0.044 H 
ATOM     38  H   LIG d   1       8.065  -5.165  -9.364  0.00  0.00     0.044 H 
BRANCH  36  39
ATOM     39  C   LIG d   1       7.430  -5.207  -7.298  0.00  0.00     0.024 C 
ATOM     40  H   LIG d   1       7.649  -6.277  -7.431  0.00  0.00     0.047 H 
ATOM     41  H   LIG d   1       6.357  -5.075  -7.097  0.00  0.00     0.047 H 
BRANCH  39  42
ATOM     42  N   LIG d   1       8.206  -4.684  -6.170  0.00  0.00    -0.314 N 
ATOM     43  C   LIG d   1       7.571  -4.189  -5.089  0.00  0.00     0.210 C 
ATOM     44  O   LIG d   1       6.359  -4.176  -5.050  0.00  0.00    -0.276 OA
ATOM     45  H   LIG d   1       9.304  -4.697  -6.206  0.00  0.00     0.149 HD
BRANCH  43  46
ATOM     46  C   LIG d   1       8.368  -3.652  -3.928  0.00  0.00     0.012 C 
ATOM     47  H   LIG d   1       8.705  -4.489  -3.296  0.00  0.00     0.032 H 
ATOM     48  H   LIG d   1       7.739  -2.974  -3.334  0.00  0.00     0.032 H 
ATOM     49  H   LIG d   1       9.243  -3.104  -4.307  0.00  0.00     0.032 H 
ENDBRANCH  43  46
ENDBRANCH  39  42
ENDBRANCH  36  39
ENDBRANCH  34  36
ENDBRANCH   1  34
BRANCH   4  50
ATOM     50  C   LIG d   1       4.284  -3.009  -9.651  0.00  0.00     0.002 A 
ATOM     51  C   LIG d   1       4.363  -3.789 -10.788  0.00  0.00    -0.035 A 
ATOM     52  C   LIG d   1       3.977  -5.118 -10.743  0.00  0.00     0.041 A 
ATOM     53  H   LIG d   1       4.729  -3.364 -11.711  0.00  0.00     0.064 H 
ATOM     54  C   LIG d   1       3.503  -5.660  -9.562  0.00  0.00    -0.043 A 
ATOM     55 CL   LIG d   1       4.083  -6.101 -12.170  0.00  0.00    -0.084 Cl
ATOM     56  C   LIG d   1       3.419  -4.876  -8.428  0.00  0.00    -0.060 A 
ATOM     57  H   LIG d   1       3.198  -6.696  -9.529  0.00  0.00     0.063 H 
ATOM     58  C   LIG d   1       3.809  -3.552  -8.471  0.00  0.00    -0.053 A 
ATOM     59  H   LIG d   1       3.047  -5.300  -7.505  0.00  0.00     0.062 H 
ATOM     60  H   LIG d   1       3.743  -2.940  -7.583  0.00  0.00     0.062 H 
ENDBRANCH   4  50
BRANCH   7  61
ATOM     61  C   LIG d   1       2.309  -0.359  -9.219  0.00  0.00     0.356 C 
ATOM     62  O   LIG d   1       2.519   0.748  -9.655  0.00  0.00    -0.244 OA
BRANCH  61  63
ATOM     63  O   LIG d   1       1.385  -1.143  -9.795  0.00  0.00    -0.464 OA
BRANCH  63  64
ATOM     64  C   LIG d   1       1.326  -1.136 -11.246  0.00  0.00     0.082 C 
ATOM     65  H   LIG d   1       1.960  -1.942 -11.643  0.00  0.00     0.066 H 
ATOM     66  H   LIG d   1       1.686  -0.166 -11.622  0.00  0.00     0.066 H 
ATOM     67  H   LIG d   1       0.287  -1.293 -11.572  0.00  0.00     0.066 H 
ENDBRANCH  63  64
ENDBRANCH  61  63
ENDBRANCH   7  61
TORSDOF 9
ENDMDL
MODEL 10
REMARK VINA RESULT:      -5.8      3.367      7.158
REMARK  9 active torsions:
REMARK  status: ('A' for Active; 'I' for Inactive)
REMARK    1  A    between atoms: C_1  and  C_2 
REMARK       I    between atoms: C_2  and  N_4 
REMARK    2  A    between atoms: N_4  and  C_5 
REMARK    3  A    between atoms: C_5  and  C_6 
REMARK    4  A    between atoms: C_6  and  N_7 
REMARK    5  A    between atoms: N_7  and  C_8 
REMARK    6  A    between atoms: C_11  and  C_34 
REMARK    7  A    between atoms: C_14  and  C_30 
REMARK    8  A    between atoms: C_30  and  O_32 
REMARK    9  A    between atoms: O_32  and  C_33 
ROOT
ATOM      1  C   LIG d   1       5.921  -3.540  -5.359  0.00  0.00     0.019 C 
ATOM      2  H   LIG d   1       6.191  -4.586  -5.156  0.00  0.00     0.046 H 
ATOM      3  C   LIG d   1       5.047  -2.981  -4.234  0.00  0.00     0.010 C 
ATOM      4  C   LIG d   1       4.672  -1.531  -4.551  0.00  0.00     0.008 C 
ATOM      5  H   LIG d   1       4.005  -1.121  -3.778  0.00  0.00     0.090 H 
ATOM      6  N   LIG d   1       3.956  -1.476  -5.830  0.00  0.00     0.258 N 
ATOM      7  C   LIG d   1       3.420  -0.138  -6.106  0.00  0.00     0.083 C 
ATOM      8  H   LIG d   1       4.264   0.499  -6.410  0.00  0.00     0.097 H 
ATOM      9  C   LIG d   1       2.367  -0.224  -7.218  0.00  0.00     0.029 C 
ATOM     10  C   LIG d   1       2.938  -1.046  -8.347  0.00  0.00    -0.008 A 
ATOM     11  C   LIG d   1       2.479  -1.171  -9.712  0.00  0.00     0.004 A 
ATOM     12  C   LIG d   1       1.407  -0.605 -10.411  0.00  0.00    -0.052 A 
ATOM     13  C   LIG d   1       1.270  -0.956 -11.731  0.00  0.00    -0.061 A 
ATOM     14  C   LIG d   1       2.146  -1.831 -12.353  0.00  0.00    -0.060 A 
ATOM     15  C   LIG d   1       3.215  -2.405 -11.688  0.00  0.00    -0.038 A 
ATOM     16  C   LIG d   1       3.379  -2.066 -10.347  0.00  0.00     0.047 A 
ATOM     17  N   LIG d   1       4.306  -2.439  -9.415  0.00  0.00    -0.353 N 
ATOM     18  H   LIG d   1       5.110  -3.137  -9.690  0.00  0.00     0.166 HD
ATOM     19  C   LIG d   1       4.036  -1.828  -8.222  0.00  0.00     0.069 A 
ATOM     20  C   LIG d   1       4.803  -1.959  -6.931  0.00  0.00     0.023 C 
ATOM     21  H   LIG d   1       5.713  -1.341  -6.965  0.00  0.00     0.092 H 
ATOM     22  C   LIG d   1       5.170  -3.424  -6.690  0.00  0.00     0.012 C 
ATOM     23  H   LIG d   1       4.133  -3.586  -4.144  0.00  0.00     0.034 H 
ATOM     24  H   LIG d   1       5.604  -3.016  -3.286  0.00  0.00     0.034 H 
ATOM     25  H   LIG d   1       1.457  -0.702  -6.826  0.00  0.00     0.037 H 
ATOM     26  H   LIG d   1       2.125   0.788  -7.574  0.00  0.00     0.037 H 
ATOM     27  H   LIG d   1       0.720   0.078  -9.933  0.00  0.00     0.062 H 
ATOM     28  H   LIG d   1       0.454  -0.538 -12.301  0.00  0.00     0.062 H 
ATOM     29  H   LIG d   1       1.989  -2.073 -13.395  0.00  0.00     0.062 H 
ATOM     30  H   LIG d   1       3.890  -3.085 -12.185  0.00  0.00     0.064 H 
ATOM     31  H   LIG d   1       5.812  -3.785  -7.506  0.00  0.00     0.034 H 
ATOM     32  H   LIG d   1       4.254  -4.034  -6.648  0.00  0.00     0.034 H 
ATOM     33  H   LIG d   1       3.089  -2.149  -5.749  0.00  0.00     0.206 HD
ENDROOT
BRANCH   1  34
ATOM     34  N   LIG d   1       7.172  -2.774  -5.435  0.00  0.00    -0.311 N 
ATOM     35  H   LIG d   1       7.221  -2.093  -4.574  0.00  0.00     0.122 HD
BRANCH  34  36
ATOM     36  C   LIG d   1       8.338  -3.667  -5.421  0.00  0.00     0.012 C 
ATOM     37  H   LIG d   1       8.979  -3.446  -6.286  0.00  0.00     0.044 H 
ATOM     38  H   LIG d   1       8.000  -4.713  -5.474  0.00  0.00     0.044 H 
BRANCH  36  39
ATOM     39  C   LIG d   1       9.130  -3.453  -4.129  0.00  0.00     0.024 C 
ATOM     40  H   LIG d   1       8.499  -2.928  -3.396  0.00  0.00     0.047 H 
ATOM     41  H   LIG d   1      10.023  -2.848  -4.343  0.00  0.00     0.047 H 
BRANCH  39  42
ATOM     42  N   LIG d   1       9.537  -4.750  -3.585  0.00  0.00    -0.314 N 
ATOM     43  C   LIG d   1       9.637  -4.919  -2.251  0.00  0.00     0.210 C 
ATOM     44  O   LIG d   1       9.391  -3.997  -1.503  0.00  0.00    -0.276 OA
ATOM     45  H   LIG d   1       9.760  -5.586  -4.264  0.00  0.00     0.149 HD
BRANCH  43  46
ATOM     46  C   LIG d   1      10.055  -6.254  -1.691  0.00  0.00     0.012 C 
ATOM     47  H   LIG d   1       9.162  -6.812  -1.369  0.00  0.00     0.032 H 
ATOM     48  H   LIG d   1      10.720  -6.098  -0.829  0.00  0.00     0.032 H 
ATOM     49  H   LIG d   1      10.585  -6.827  -2.465  0.00  0.00     0.032 H 
ENDBRANCH  43  46
ENDBRANCH  39  42
ENDBRANCH  36  39
ENDBRANCH  34  36
ENDBRANCH   1  34
BRANCH   4  50
ATOM     50  C   LIG d   1       5.923  -0.696  -4.648  0.00  0.00     0.002 A 
ATOM     51  C   LIG d   1       6.265  -0.103  -5.848  0.00  0.00    -0.035 A 
ATOM     52  C   LIG d   1       7.412   0.668  -5.935  0.00  0.00     0.041 A 
ATOM     53  H   LIG d   1       5.637  -0.237  -6.716  0.00  0.00     0.064 H 
ATOM     54  C   LIG d   1       8.219   0.834  -4.825  0.00  0.00    -0.043 A 
ATOM     55 CL   LIG d   1       7.839   1.420  -7.440  0.00  0.00    -0.084 Cl
ATOM     56  C   LIG d   1       7.878   0.234  -3.627  0.00  0.00    -0.060 A 
ATOM     57  H   LIG d   1       9.117   1.431  -4.894  0.00  0.00     0.063 H 
ATOM     58  C   LIG d   1       6.731  -0.530  -3.539  0.00  0.00    -0.053 A 
ATOM     59  H   LIG d   1       8.510   0.363  -2.760  0.00  0.00     0.062 H 
ATOM     60  H   LIG d   1       6.464  -0.998  -2.602  0.00  0.00     0.062 H 
ENDBRANCH   4  50
BRANCH   7  61
ATOM     61  C   LIG d   1       2.788   0.418  -4.857  0.00  0.00     0.356 C 
ATOM     62  O   LIG d   1       1.817  -0.121  -4.380  0.00  0.00    -0.244 OA
BRANCH  61  63
ATOM     63  O   LIG d   1       3.304   1.511  -4.272  0.00  0.00    -0.464 OA
BRANCH  63  64
ATOM     64  C   LIG d   1       3.542   1.443  -2.842  0.00  0.00     0.082 C 
ATOM     65  H   LIG d   1       3.536   0.392  -2.518  0.00  0.00     0.066 H 
ATOM     66  H   LIG d   1       2.751   1.995  -2.311  0.00  0.00     0.066 H 
ATOM     67  H   LIG d   1       4.520   1.892  -2.611  0.00  0.00     0.066 H 
ENDBRANCH  63  64
ENDBRANCH  61  63
ENDBRANCH   7  61
TORSDOF 9
ENDMDL
