MODEL 1
REMARK VINA RESULT:      -6.8      0.000      0.000
REMARK  13 active torsions:
REMARK  status: ('A' for Active; 'I' for Inactive)
REMARK    1  A    between atoms: C_1  and  C_2 
REMARK    2  A    between atoms: C_3  and  C_26 
REMARK    3  A    between atoms: C_6  and  O_11 
REMARK    4  A    between atoms: O_11  and  C_12 
REMARK    5  A    between atoms: C_12  and  C_13 
REMARK       I    between atoms: C_13  and  N_15 
REMARK    6  A    between atoms: N_15  and  N_16 
REMARK    7  A    between atoms: C_17  and  C_18 
REMARK    8  A    between atoms: C_23  and  O_24 
REMARK    9  A    between atoms: O_24  and  C_25 
REMARK   10  A    between atoms: C_26  and  O_28 
REMARK   11  A    between atoms: O_28  and  C_29 
REMARK   12  A    between atoms: C_29  and  C_30 
REMARK   13  A    between atoms: C_29  and  C_31 
ROOT
ATOM      1  C   LIG d   1       7.916 -10.165  -1.716  0.00  0.00     0.117 A 
ATOM      2  C   LIG d   1       8.010  -9.199  -2.670  0.00  0.00     0.107 A 
ATOM      3  C   LIG d   1       6.721  -9.223  -3.392  0.00  0.00     0.038 A 
ATOM      4  C   LIG d   1       6.193  -8.502  -4.457  0.00  0.00    -0.008 A 
ATOM      5  C   LIG d   1       4.913  -8.779  -4.900  0.00  0.00     0.122 A 
ATOM      6  C   LIG d   1       4.164  -9.780  -4.289  0.00  0.00    -0.016 A 
ATOM      7  C   LIG d   1       4.684 -10.499  -3.236  0.00  0.00    -0.015 A 
ATOM      8  C   LIG d   1       5.967 -10.230  -2.775  0.00  0.00     0.136 A 
ATOM      9  O   LIG d   1       6.720 -10.759  -1.787  0.00  0.00    -0.459 OA
ATOM     10  H   LIG d   1       6.778  -7.728  -4.934  0.00  0.00     0.066 H 
ATOM     11  H   LIG d   1       3.167  -9.993  -4.643  0.00  0.00     0.066 H 
ATOM     12  H   LIG d   1       4.094 -11.274  -2.768  0.00  0.00     0.066 H 
ENDROOT
BRANCH   5  13
ATOM     13  O   LIG d   1       4.387  -8.076  -5.940  0.00  0.00    -0.483 OA
BRANCH  13  14
ATOM     14  C   LIG d   1       5.118  -6.931  -6.384  0.00  0.00     0.167 C 
ATOM     15  H   LIG d   1       5.099  -6.888  -7.473  0.00  0.00     0.080 H 
ATOM     16  H   LIG d   1       6.150  -7.004  -6.041  0.00  0.00     0.080 H 
BRANCH  14  17
ATOM     17  C   LIG d   1       4.488  -5.685  -5.822  0.00  0.00     0.270 C 
ATOM     18  O   LIG d   1       3.341  -5.406  -6.099  0.00  0.00    -0.270 OA
ATOM     19  N   LIG d   1       5.199  -4.877  -5.009  0.00  0.00    -0.204 N 
ATOM     20  H   LIG d   1       6.117  -5.100  -4.786  0.00  0.00     0.177 HD
BRANCH  19  21
ATOM     21  N   LIG d   1       4.613  -3.717  -4.486  0.00  0.00    -0.188 NA
ATOM     22  C   LIG d   1       5.362  -2.771  -4.007  0.00  0.00     0.056 C 
ATOM     23  H   LIG d   1       6.436  -2.878  -4.012  0.00  0.00     0.085 H 
BRANCH  22  24
ATOM     24  C   LIG d   1       4.745  -1.551  -3.457  0.00  0.00     0.036 A 
ATOM     25  C   LIG d   1       5.549  -0.478  -3.050  0.00  0.00     0.129 A 
ATOM     26  C   LIG d   1       4.958   0.662  -2.529  0.00  0.00    -0.019 A 
ATOM     27  C   LIG d   1       3.583   0.742  -2.416  0.00  0.00    -0.058 A 
ATOM     28  H   LIG d   1       5.574   1.491  -2.211  0.00  0.00     0.065 H 
ATOM     29  C   LIG d   1       2.786  -0.314  -2.822  0.00  0.00    -0.061 A 
ATOM     30  H   LIG d   1       3.128   1.633  -2.010  0.00  0.00     0.062 H 
ATOM     31  C   LIG d   1       3.356  -1.456  -3.344  0.00  0.00    -0.050 A 
ATOM     32  H   LIG d   1       1.712  -0.243  -2.731  0.00  0.00     0.062 H 
ATOM     33  H   LIG d   1       2.730  -2.278  -3.659  0.00  0.00     0.062 H 
BRANCH  25  34
ATOM     34  O   LIG d   1       6.900  -0.556  -3.160  0.00  0.00    -0.494 OA
BRANCH  34  35
ATOM     35  C   LIG d   1       7.530   0.347  -4.071  0.00  0.00     0.079 C 
ATOM     36  H   LIG d   1       7.416  -0.024  -5.089  0.00  0.00     0.066 H 
ATOM     37  H   LIG d   1       7.065   1.330  -3.987  0.00  0.00     0.066 H 
ATOM     38  H   LIG d   1       8.590   0.425  -3.829  0.00  0.00     0.066 H 
ENDBRANCH  34  35
ENDBRANCH  25  34
ENDBRANCH  22  24
ENDBRANCH  19  21
ENDBRANCH  14  17
ENDBRANCH  13  14
ENDBRANCH   5  13
BRANCH   2  39
ATOM     39  C   LIG d   1       9.156  -8.316  -2.930  0.00  0.00     0.343 C 
ATOM     40  O   LIG d   1      10.089  -8.712  -3.601  0.00  0.00    -0.245 OA
BRANCH  39  41
ATOM     41  O   LIG d   1       9.172  -7.065  -2.426  0.00  0.00    -0.458 OA
BRANCH  41  42
ATOM     42  C   LIG d   1       9.701  -6.017  -3.278  0.00  0.00     0.098 C 
ATOM     43  H   LIG d   1      10.642  -6.347  -3.719  0.00  0.00     0.073 H 
BRANCH  42  44
ATOM     44  C   LIG d   1       8.698  -5.710  -4.392  0.00  0.00    -0.028 C 
ATOM     45  H   LIG d   1       8.111  -4.833  -4.121  0.00  0.00     0.026 H 
ATOM     46  H   LIG d   1       9.234  -5.515  -5.321  0.00  0.00     0.026 H 
ATOM     47  H   LIG d   1       8.034  -6.564  -4.529  0.00  0.00     0.026 H 
ENDBRANCH  42  44
BRANCH  42  48
ATOM     48  C   LIG d   1       9.942  -4.755  -2.446  0.00  0.00    -0.028 C 
ATOM     49  H   LIG d   1      10.705  -4.956  -1.695  0.00  0.00     0.026 H 
ATOM     50  H   LIG d   1      10.277  -3.949  -3.098  0.00  0.00     0.026 H 
ATOM     51  H   LIG d   1       9.014  -4.464  -1.954  0.00  0.00     0.026 H 
ENDBRANCH  42  48
ENDBRANCH  41  42
ENDBRANCH  39  41
ENDBRANCH   2  39
BRANCH   1  52
ATOM     52  C   LIG d   1       8.999 -10.513  -0.726  0.00  0.00    -0.005 C 
ATOM     53  H   LIG d   1       9.966 -10.197  -1.119  0.00  0.00     0.031 H 
ATOM     54  H   LIG d   1       8.806 -10.003   0.217  0.00  0.00     0.031 H 
ATOM     55  H   LIG d   1       9.009 -11.590  -0.562  0.00  0.00     0.031 H 
ENDBRANCH   1  52
TORSDOF 13
ENDMDL
MODEL 2
REMARK VINA RESULT:      -6.6      1.370      1.995
REMARK  13 active torsions:
REMARK  status: ('A' for Active; 'I' for Inactive)
REMARK    1  A    between atoms: C_1  and  C_2 
REMARK    2  A    between atoms: C_3  and  C_26 
REMARK    3  A    between atoms: C_6  and  O_11 
REMARK    4  A    between atoms: O_11  and  C_12 
REMARK    5  A    between atoms: C_12  and  C_13 
REMARK       I    between atoms: C_13  and  N_15 
REMARK    6  A    between atoms: N_15  and  N_16 
REMARK    7  A    between atoms: C_17  and  C_18 
REMARK    8  A    between atoms: C_23  and  O_24 
REMARK    9  A    between atoms: O_24  and  C_25 
REMARK   10  A    between atoms: C_26  and  O_28 
REMARK   11  A    between atoms: O_28  and  C_29 
REMARK   12  A    between atoms: C_29  and  C_30 
REMARK   13  A    between atoms: C_29  and  C_31 
ROOT
ATOM      1  C   LIG d   1       7.072 -11.880  -3.161  0.00  0.00     0.117 A 
ATOM      2  C   LIG d   1       6.833 -10.543  -3.071  0.00  0.00     0.107 A 
ATOM      3  C   LIG d   1       6.009 -10.204  -4.250  0.00  0.00     0.038 A 
ATOM      4  C   LIG d   1       5.447  -9.028  -4.734  0.00  0.00    -0.008 A 
ATOM      5  C   LIG d   1       4.705  -9.056  -5.901  0.00  0.00     0.122 A 
ATOM      6  C   LIG d   1       4.533 -10.252  -6.590  0.00  0.00    -0.016 A 
ATOM      7  C   LIG d   1       5.091 -11.419  -6.117  0.00  0.00    -0.015 A 
ATOM      8  C   LIG d   1       5.835 -11.409  -4.943  0.00  0.00     0.136 A 
ATOM      9  O   LIG d   1       6.485 -12.374  -4.257  0.00  0.00    -0.459 OA
ATOM     10  H   LIG d   1       5.585  -8.098  -4.200  0.00  0.00     0.066 H 
ATOM     11  H   LIG d   1       3.957 -10.266  -7.502  0.00  0.00     0.066 H 
ATOM     12  H   LIG d   1       4.951 -12.343  -6.660  0.00  0.00     0.066 H 
ENDROOT
BRANCH   5  13
ATOM     13  O   LIG d   1       4.149  -7.910  -6.379  0.00  0.00    -0.483 OA
BRANCH  13  14
ATOM     14  C   LIG d   1       5.023  -6.798  -6.578  0.00  0.00     0.167 C 
ATOM     15  H   LIG d   1       5.151  -6.622  -7.647  0.00  0.00     0.080 H 
ATOM     16  H   LIG d   1       5.993  -7.013  -6.127  0.00  0.00     0.080 H 
BRANCH  14  17
ATOM     17  C   LIG d   1       4.431  -5.572  -5.935  0.00  0.00     0.270 C 
ATOM     18  O   LIG d   1       3.266  -5.292  -6.121  0.00  0.00    -0.270 OA
ATOM     19  N   LIG d   1       5.196  -4.785  -5.151  0.00  0.00    -0.204 N 
ATOM     20  H   LIG d   1       6.128  -5.010  -5.002  0.00  0.00     0.177 HD
BRANCH  19  21
ATOM     21  N   LIG d   1       4.645  -3.644  -4.553  0.00  0.00    -0.188 NA
ATOM     22  C   LIG d   1       5.422  -2.701  -4.117  0.00  0.00     0.056 C 
ATOM     23  H   LIG d   1       6.493  -2.795  -4.216  0.00  0.00     0.085 H 
BRANCH  22  24
ATOM     24  C   LIG d   1       4.842  -1.501  -3.488  0.00  0.00     0.036 A 
ATOM     25  C   LIG d   1       5.663  -0.417  -3.149  0.00  0.00     0.129 A 
ATOM     26  C   LIG d   1       5.108   0.704  -2.553  0.00  0.00    -0.019 A 
ATOM     27  C   LIG d   1       3.751   0.753  -2.298  0.00  0.00    -0.058 A 
ATOM     28  H   LIG d   1       5.737   1.540  -2.286  0.00  0.00     0.065 H 
ATOM     29  C   LIG d   1       2.936  -0.313  -2.637  0.00  0.00    -0.061 A 
ATOM     30  H   LIG d   1       3.323   1.630  -1.834  0.00  0.00     0.062 H 
ATOM     31  C   LIG d   1       3.471  -1.436  -3.232  0.00  0.00    -0.050 A 
ATOM     32  H   LIG d   1       1.875  -0.265  -2.435  0.00  0.00     0.062 H 
ATOM     33  H   LIG d   1       2.831  -2.266  -3.494  0.00  0.00     0.062 H 
BRANCH  25  34
ATOM     34  O   LIG d   1       6.997  -0.466  -3.398  0.00  0.00    -0.494 OA
BRANCH  34  35
ATOM     35  C   LIG d   1       7.611   0.729  -3.881  0.00  0.00     0.079 C 
ATOM     36  H   LIG d   1       7.596   1.488  -3.100  0.00  0.00     0.066 H 
ATOM     37  H   LIG d   1       8.644   0.519  -4.163  0.00  0.00     0.066 H 
ATOM     38  H   LIG d   1       7.065   1.093  -4.752  0.00  0.00     0.066 H 
ENDBRANCH  34  35
ENDBRANCH  25  34
ENDBRANCH  22  24
ENDBRANCH  19  21
ENDBRANCH  14  17
ENDBRANCH  13  14
ENDBRANCH   5  13
BRANCH   2  39
ATOM     39  C   LIG d   1       7.297  -9.627  -2.021  0.00  0.00     0.343 C 
ATOM     40  O   LIG d   1       6.841  -9.709  -0.897  0.00  0.00    -0.245 OA
BRANCH  39  41
ATOM     41  O   LIG d   1       8.230  -8.695  -2.303  0.00  0.00    -0.458 OA
BRANCH  41  42
ATOM     42  C   LIG d   1       9.499  -8.801  -1.608  0.00  0.00     0.098 C 
ATOM     43  H   LIG d   1       9.324  -9.105  -0.575  0.00  0.00     0.073 H 
BRANCH  42  44
ATOM     44  C   LIG d   1      10.377  -9.844  -2.303  0.00  0.00    -0.028 C 
ATOM     45  H   LIG d   1       9.759 -10.463  -2.954  0.00  0.00     0.026 H 
ATOM     46  H   LIG d   1      11.139  -9.340  -2.898  0.00  0.00     0.026 H 
ATOM     47  H   LIG d   1      10.859 -10.472  -1.554  0.00  0.00     0.026 H 
ENDBRANCH  42  44
BRANCH  42  48
ATOM     48  C   LIG d   1      10.207  -7.444  -1.626  0.00  0.00    -0.028 C 
ATOM     49  H   LIG d   1      10.674  -7.292  -2.599  0.00  0.00     0.026 H 
ATOM     50  H   LIG d   1       9.480  -6.653  -1.444  0.00  0.00     0.026 H 
ATOM     51  H   LIG d   1      10.971  -7.423  -0.849  0.00  0.00     0.026 H 
ENDBRANCH  42  48
ENDBRANCH  41  42
ENDBRANCH  39  41
ENDBRANCH   2  39
BRANCH   1  52
ATOM     52  C   LIG d   1       7.878 -12.684  -2.173  0.00  0.00    -0.005 C 
ATOM     53  H   LIG d   1       8.668 -13.220  -2.700  0.00  0.00     0.031 H 
ATOM     54  H   LIG d   1       8.322 -12.015  -1.437  0.00  0.00     0.031 H 
ATOM     55  H   LIG d   1       7.228 -13.399  -1.669  0.00  0.00     0.031 H 
ENDBRANCH   1  52
TORSDOF 13
ENDMDL
MODEL 3
REMARK VINA RESULT:      -6.5      5.978      9.745
REMARK  13 active torsions:
REMARK  status: ('A' for Active; 'I' for Inactive)
REMARK    1  A    between atoms: C_1  and  C_2 
REMARK    2  A    between atoms: C_3  and  C_26 
REMARK    3  A    between atoms: C_6  and  O_11 
REMARK    4  A    between atoms: O_11  and  C_12 
REMARK    5  A    between atoms: C_12  and  C_13 
REMARK       I    between atoms: C_13  and  N_15 
REMARK    6  A    between atoms: N_15  and  N_16 
REMARK    7  A    between atoms: C_17  and  C_18 
REMARK    8  A    between atoms: C_23  and  O_24 
REMARK    9  A    between atoms: O_24  and  C_25 
REMARK   10  A    between atoms: C_26  and  O_28 
REMARK   11  A    between atoms: O_28  and  C_29 
REMARK   12  A    between atoms: C_29  and  C_30 
REMARK   13  A    between atoms: C_29  and  C_31 
ROOT
ATOM      1  C   LIG d   1      -2.037  -5.533 -11.954  0.00  0.00     0.117 A 
ATOM      2  C   LIG d   1      -1.241  -5.369 -10.862  0.00  0.00     0.107 A 
ATOM      3  C   LIG d   1      -0.329  -4.256 -11.196  0.00  0.00     0.038 A 
ATOM      4  C   LIG d   1       0.706  -3.615 -10.523  0.00  0.00    -0.008 A 
ATOM      5  C   LIG d   1       1.376  -2.572 -11.136  0.00  0.00     0.122 A 
ATOM      6  C   LIG d   1       1.023  -2.176 -12.422  0.00  0.00    -0.016 A 
ATOM      7  C   LIG d   1       0.001  -2.810 -13.094  0.00  0.00    -0.015 A 
ATOM      8  C   LIG d   1      -0.686  -3.856 -12.491  0.00  0.00     0.136 A 
ATOM      9  O   LIG d   1      -1.704  -4.645 -12.897  0.00  0.00    -0.459 OA
ATOM     10  H   LIG d   1       0.982  -3.927  -9.526  0.00  0.00     0.066 H 
ATOM     11  H   LIG d   1       1.553  -1.364 -12.896  0.00  0.00     0.066 H 
ATOM     12  H   LIG d   1      -0.265  -2.493 -14.093  0.00  0.00     0.066 H 
ENDROOT
BRANCH   5  13
ATOM     13  O   LIG d   1       2.387  -1.938 -10.483  0.00  0.00    -0.483 OA
BRANCH  13  14
ATOM     14  C   LIG d   1       2.043  -0.770  -9.734  0.00  0.00     0.167 C 
ATOM     15  H   LIG d   1       0.967  -0.753  -9.561  0.00  0.00     0.080 H 
ATOM     16  H   LIG d   1       2.335   0.119 -10.294  0.00  0.00     0.080 H 
BRANCH  14  17
ATOM     17  C   LIG d   1       2.764  -0.790  -8.413  0.00  0.00     0.270 C 
ATOM     18  O   LIG d   1       3.493  -1.719  -8.133  0.00  0.00    -0.270 OA
ATOM     19  N   LIG d   1       2.600   0.224  -7.539  0.00  0.00    -0.204 N 
ATOM     20  H   LIG d   1       2.017   0.966  -7.762  0.00  0.00     0.177 HD
BRANCH  19  21
ATOM     21  N   LIG d   1       3.271   0.205  -6.309  0.00  0.00    -0.188 NA
ATOM     22  C   LIG d   1       2.596   0.234  -5.201  0.00  0.00     0.056 C 
ATOM     23  H   LIG d   1       1.517   0.274  -5.227  0.00  0.00     0.085 H 
BRANCH  22  24
ATOM     24  C   LIG d   1       3.302   0.214  -3.907  0.00  0.00     0.036 A 
ATOM     25  C   LIG d   1       3.810  -0.989  -3.401  0.00  0.00     0.129 A 
ATOM     26  C   LIG d   1       4.467  -0.997  -2.182  0.00  0.00    -0.019 A 
ATOM     27  C   LIG d   1       4.624   0.177  -1.470  0.00  0.00    -0.058 A 
ATOM     28  H   LIG d   1       4.857  -1.923  -1.785  0.00  0.00     0.065 H 
ATOM     29  C   LIG d   1       4.128   1.369  -1.970  0.00  0.00    -0.061 A 
ATOM     30  H   LIG d   1       5.138   0.166  -0.520  0.00  0.00     0.062 H 
ATOM     31  C   LIG d   1       3.472   1.396  -3.183  0.00  0.00    -0.050 A 
ATOM     32  H   LIG d   1       4.257   2.283  -1.408  0.00  0.00     0.062 H 
ATOM     33  H   LIG d   1       3.087   2.328  -3.569  0.00  0.00     0.062 H 
BRANCH  25  34
ATOM     34  O   LIG d   1       3.655  -2.143  -4.099  0.00  0.00    -0.494 OA
BRANCH  34  35
ATOM     35  C   LIG d   1       4.793  -3.002  -4.194  0.00  0.00     0.079 C 
ATOM     36  H   LIG d   1       5.230  -3.138  -3.206  0.00  0.00     0.066 H 
ATOM     37  H   LIG d   1       4.485  -3.970  -4.592  0.00  0.00     0.066 H 
ATOM     38  H   LIG d   1       5.531  -2.555  -4.860  0.00  0.00     0.066 H 
ENDBRANCH  34  35
ENDBRANCH  25  34
ENDBRANCH  22  24
ENDBRANCH  19  21
ENDBRANCH  14  17
ENDBRANCH  13  14
ENDBRANCH   5  13
BRANCH   2  39
ATOM     39  C   LIG d   1      -1.279  -6.140  -9.612  0.00  0.00     0.343 C 
ATOM     40  O   LIG d   1      -2.129  -5.902  -8.776  0.00  0.00    -0.245 OA
BRANCH  39  41
ATOM     41  O   LIG d   1      -0.371  -7.113  -9.392  0.00  0.00    -0.458 OA
BRANCH  41  42
ATOM     42  C   LIG d   1       0.259  -7.704 -10.558  0.00  0.00     0.098 C 
ATOM     43  H   LIG d   1       0.105  -7.056 -11.422  0.00  0.00     0.073 H 
BRANCH  42  44
ATOM     44  C   LIG d   1       1.759  -7.863 -10.302  0.00  0.00    -0.028 C 
ATOM     45  H   LIG d   1       2.050  -7.247  -9.451  0.00  0.00     0.026 H 
ATOM     46  H   LIG d   1       1.983  -8.907 -10.087  0.00  0.00     0.026 H 
ATOM     47  H   LIG d   1       2.314  -7.546 -11.185  0.00  0.00     0.026 H 
ENDBRANCH  42  44
BRANCH  42  48
ATOM     48  C   LIG d   1      -0.360  -9.076 -10.832  0.00  0.00    -0.028 C 
ATOM     49  H   LIG d   1       0.414  -9.760 -11.180  0.00  0.00     0.026 H 
ATOM     50  H   LIG d   1      -0.803  -9.465  -9.916  0.00  0.00     0.026 H 
ATOM     51  H   LIG d   1      -1.131  -8.980 -11.597  0.00  0.00     0.026 H 
ENDBRANCH  42  48
ENDBRANCH  41  42
ENDBRANCH  39  41
ENDBRANCH   2  39
BRANCH   1  52
ATOM     52  C   LIG d   1      -3.132  -6.561 -12.081  0.00  0.00    -0.005 C 
ATOM     53  H   LIG d   1      -3.916  -6.350 -11.353  0.00  0.00     0.031 H 
ATOM     54  H   LIG d   1      -3.550  -6.524 -13.086  0.00  0.00     0.031 H 
ATOM     55  H   LIG d   1      -2.721  -7.554 -11.895  0.00  0.00     0.031 H 
ENDBRANCH   1  52
TORSDOF 13
ENDMDL
MODEL 4
REMARK VINA RESULT:      -6.3      7.164     13.348
REMARK  13 active torsions:
REMARK  status: ('A' for Active; 'I' for Inactive)
REMARK    1  A    between atoms: C_1  and  C_2 
REMARK    2  A    between atoms: C_3  and  C_26 
REMARK    3  A    between atoms: C_6  and  O_11 
REMARK    4  A    between atoms: O_11  and  C_12 
REMARK    5  A    between atoms: C_12  and  C_13 
REMARK       I    between atoms: C_13  and  N_15 
REMARK    6  A    between atoms: N_15  and  N_16 
REMARK    7  A    between atoms: C_17  and  C_18 
REMARK    8  A    between atoms: C_23  and  O_24 
REMARK    9  A    between atoms: O_24  and  C_25 
REMARK   10  A    between atoms: C_26  and  O_28 
REMARK   11  A    between atoms: O_28  and  C_29 
REMARK   12  A    between atoms: C_29  and  C_30 
REMARK   13  A    between atoms: C_29  and  C_31 
ROOT
ATOM      1  C   LIG d   1      11.104   8.093   0.237  0.00  0.00     0.117 A 
ATOM      2  C   LIG d   1      10.244   8.184  -0.814  0.00  0.00     0.107 A 
ATOM      3  C   LIG d   1      10.303   6.873  -1.493  0.00  0.00     0.038 A 
ATOM      4  C   LIG d   1       9.679   6.332  -2.612  0.00  0.00    -0.008 A 
ATOM      5  C   LIG d   1       9.961   5.032  -2.988  0.00  0.00     0.122 A 
ATOM      6  C   LIG d   1      10.872   4.275  -2.257  0.00  0.00    -0.016 A 
ATOM      7  C   LIG d   1      11.495   4.808  -1.150  0.00  0.00    -0.015 A 
ATOM      8  C   LIG d   1      11.219   6.111  -0.755  0.00  0.00     0.136 A 
ATOM      9  O   LIG d   1      11.667   6.880   0.261  0.00  0.00    -0.459 OA
ATOM     10  H   LIG d   1       8.976   6.922  -3.181  0.00  0.00     0.066 H 
ATOM     11  H   LIG d   1      11.090   3.263  -2.559  0.00  0.00     0.066 H 
ATOM     12  H   LIG d   1      12.200   4.211  -0.589  0.00  0.00     0.066 H 
ENDROOT
BRANCH   5  13
ATOM     13  O   LIG d   1       9.353   4.493  -4.079  0.00  0.00    -0.483 OA
BRANCH  13  14
ATOM     14  C   LIG d   1       9.905   3.282  -4.598  0.00  0.00     0.167 C 
ATOM     15  H   LIG d   1      10.823   3.042  -4.063  0.00  0.00     0.080 H 
ATOM     16  H   LIG d   1      10.125   3.408  -5.658  0.00  0.00     0.080 H 
BRANCH  14  17
ATOM     17  C   LIG d   1       8.913   2.162  -4.421  0.00  0.00     0.270 C 
ATOM     18  O   LIG d   1       9.297   1.012  -4.390  0.00  0.00    -0.270 OA
ATOM     19  N   LIG d   1       7.599   2.438  -4.296  0.00  0.00    -0.204 N 
ATOM     20  H   LIG d   1       7.293   3.358  -4.320  0.00  0.00     0.177 HD
BRANCH  19  21
ATOM     21  N   LIG d   1       6.677   1.396  -4.131  0.00  0.00    -0.188 NA
ATOM     22  C   LIG d   1       5.921   1.359  -3.077  0.00  0.00     0.056 C 
ATOM     23  H   LIG d   1       6.003   2.132  -2.327  0.00  0.00     0.085 H 
BRANCH  22  24
ATOM     24  C   LIG d   1       4.951   0.263  -2.904  0.00  0.00     0.036 A 
ATOM     25  C   LIG d   1       3.647   0.392  -3.400  0.00  0.00     0.129 A 
ATOM     26  C   LIG d   1       2.742  -0.643  -3.228  0.00  0.00    -0.019 A 
ATOM     27  C   LIG d   1       3.126  -1.798  -2.573  0.00  0.00    -0.058 A 
ATOM     28  H   LIG d   1       1.735  -0.547  -3.605  0.00  0.00     0.065 H 
ATOM     29  C   LIG d   1       4.415  -1.931  -2.086  0.00  0.00    -0.061 A 
ATOM     30  H   LIG d   1       2.416  -2.602  -2.441  0.00  0.00     0.062 H 
ATOM     31  C   LIG d   1       5.329  -0.912  -2.250  0.00  0.00    -0.050 A 
ATOM     32  H   LIG d   1       4.706  -2.838  -1.577  0.00  0.00     0.062 H 
ATOM     33  H   LIG d   1       6.334  -1.020  -1.869  0.00  0.00     0.062 H 
BRANCH  25  34
ATOM     34  O   LIG d   1       3.270   1.527  -4.043  0.00  0.00    -0.494 OA
BRANCH  34  35
ATOM     35  C   LIG d   1       2.476   1.373  -5.221  0.00  0.00     0.079 C 
ATOM     36  H   LIG d   1       3.097   1.534  -6.102  0.00  0.00     0.066 H 
ATOM     37  H   LIG d   1       2.059   0.366  -5.249  0.00  0.00     0.066 H 
ATOM     38  H   LIG d   1       1.665   2.101  -5.210  0.00  0.00     0.066 H 
ENDBRANCH  34  35
ENDBRANCH  25  34
ENDBRANCH  22  24
ENDBRANCH  19  21
ENDBRANCH  14  17
ENDBRANCH  13  14
ENDBRANCH   5  13
BRANCH   2  39
ATOM     39  C   LIG d   1       9.427   9.344  -1.195  0.00  0.00     0.343 C 
ATOM     40  O   LIG d   1       8.345   9.524  -0.670  0.00  0.00    -0.245 OA
BRANCH  39  41
ATOM     41  O   LIG d   1       9.877  10.209  -2.126  0.00  0.00    -0.458 OA
BRANCH  41  42
ATOM     42  C   LIG d   1       9.882  11.616  -1.770  0.00  0.00     0.098 C 
ATOM     43  H   LIG d   1       9.238  11.775  -0.904  0.00  0.00     0.073 H 
BRANCH  42  44
ATOM     44  C   LIG d   1      11.309  12.053  -1.431  0.00  0.00    -0.028 C 
ATOM     45  H   LIG d   1      11.677  11.468  -0.588  0.00  0.00     0.026 H 
ATOM     46  H   LIG d   1      11.954  11.891  -2.295  0.00  0.00     0.026 H 
ATOM     47  H   LIG d   1      11.313  13.111  -1.168  0.00  0.00     0.026 H 
ENDBRANCH  42  44
BRANCH  42  48
ATOM     48  C   LIG d   1       9.362  12.443  -2.949  0.00  0.00    -0.028 C 
ATOM     49  H   LIG d   1       8.669  13.199  -2.584  0.00  0.00     0.026 H 
ATOM     50  H   LIG d   1      10.200  12.928  -3.450  0.00  0.00     0.026 H 
ATOM     51  H   LIG d   1       8.849  11.787  -3.653  0.00  0.00     0.026 H 
ENDBRANCH  42  48
ENDBRANCH  41  42
ENDBRANCH  39  41
ENDBRANCH   2  39
BRANCH   1  52
ATOM     52  C   LIG d   1      11.382   9.196   1.227  0.00  0.00    -0.005 C 
ATOM     53  H   LIG d   1      11.450   8.775   2.230  0.00  0.00     0.031 H 
ATOM     54  H   LIG d   1      12.323   9.683   0.973  0.00  0.00     0.031 H 
ATOM     55  H   LIG d   1      10.574   9.926   1.193  0.00  0.00     0.031 H 
ENDBRANCH   1  52
TORSDOF 13
ENDMDL
MODEL 5
REMARK VINA RESULT:      -6.2      6.714     13.126
REMARK  13 active torsions:
REMARK  status: ('A' for Active; 'I' for Inactive)
REMARK    1  A    between atoms: C_1  and  C_2 
REMARK    2  A    between atoms: C_3  and  C_26 
REMARK    3  A    between atoms: C_6  and  O_11 
REMARK    4  A    between atoms: O_11  and  C_12 
REMARK    5  A    between atoms: C_12  and  C_13 
REMARK       I    between atoms: C_13  and  N_15 
REMARK    6  A    between atoms: N_15  and  N_16 
REMARK    7  A    between atoms: C_17  and  C_18 
REMARK    8  A    between atoms: C_23  and  O_24 
REMARK    9  A    between atoms: O_24  and  C_25 
REMARK   10  A    between atoms: C_26  and  O_28 
REMARK   11  A    between atoms: O_28  and  C_29 
REMARK   12  A    between atoms: C_29  and  C_30 
REMARK   13  A    between atoms: C_29  and  C_31 
ROOT
ATOM      1  C   LIG d   1       9.650   9.400  -5.642  0.00  0.00     0.117 A 
ATOM      2  C   LIG d   1      10.040   8.170  -5.209  0.00  0.00     0.107 A 
ATOM      3  C   LIG d   1       9.821   7.256  -6.348  0.00  0.00     0.038 A 
ATOM      4  C   LIG d   1      10.011   5.893  -6.548  0.00  0.00    -0.008 A 
ATOM      5  C   LIG d   1       9.699   5.333  -7.774  0.00  0.00     0.122 A 
ATOM      6  C   LIG d   1       9.188   6.129  -8.795  0.00  0.00    -0.016 A 
ATOM      7  C   LIG d   1       8.994   7.478  -8.600  0.00  0.00    -0.015 A 
ATOM      8  C   LIG d   1       9.307   8.058  -7.376  0.00  0.00     0.136 A 
ATOM      9  O   LIG d   1       9.224   9.322  -6.908  0.00  0.00    -0.459 OA
ATOM     10  H   LIG d   1      10.404   5.276  -5.753  0.00  0.00     0.066 H 
ATOM     11  H   LIG d   1       8.943   5.684  -9.747  0.00  0.00     0.066 H 
ATOM     12  H   LIG d   1       8.597   8.087  -9.400  0.00  0.00     0.066 H 
ENDROOT
BRANCH   5  13
ATOM     13  O   LIG d   1       9.885   4.001  -7.979  0.00  0.00    -0.483 OA
BRANCH  13  14
ATOM     14  C   LIG d   1      10.313   3.226  -6.858  0.00  0.00     0.167 C 
ATOM     15  H   LIG d   1      10.640   3.891  -6.059  0.00  0.00     0.080 H 
ATOM     16  H   LIG d   1      11.141   2.582  -7.156  0.00  0.00     0.080 H 
BRANCH  14  17
ATOM     17  C   LIG d   1       9.169   2.378  -6.368  0.00  0.00     0.270 C 
ATOM     18  O   LIG d   1       8.858   1.372  -6.971  0.00  0.00    -0.270 OA
ATOM     19  N   LIG d   1       8.491   2.736  -5.259  0.00  0.00    -0.204 N 
ATOM     20  H   LIG d   1       8.740   3.540  -4.777  0.00  0.00     0.177 HD
BRANCH  19  21
ATOM     21  N   LIG d   1       7.426   1.947  -4.804  0.00  0.00    -0.188 NA
ATOM     22  C   LIG d   1       7.459   1.440  -3.609  0.00  0.00     0.056 C 
ATOM     23  H   LIG d   1       8.306   1.628  -2.966  0.00  0.00     0.085 H 
BRANCH  22  24
ATOM     24  C   LIG d   1       6.339   0.610  -3.130  0.00  0.00     0.036 A 
ATOM     25  C   LIG d   1       6.372  -0.780  -3.297  0.00  0.00     0.129 A 
ATOM     26  C   LIG d   1       5.311  -1.550  -2.847  0.00  0.00    -0.019 A 
ATOM     27  C   LIG d   1       4.229  -0.949  -2.234  0.00  0.00    -0.058 A 
ATOM     28  H   LIG d   1       5.330  -2.622  -2.977  0.00  0.00     0.065 H 
ATOM     29  C   LIG d   1       4.196   0.424  -2.062  0.00  0.00    -0.061 A 
ATOM     30  H   LIG d   1       3.405  -1.554  -1.885  0.00  0.00     0.062 H 
ATOM     31  C   LIG d   1       5.243   1.206  -2.502  0.00  0.00    -0.050 A 
ATOM     32  H   LIG d   1       3.346   0.885  -1.580  0.00  0.00     0.062 H 
ATOM     33  H   LIG d   1       5.212   2.277  -2.367  0.00  0.00     0.062 H 
BRANCH  25  34
ATOM     34  O   LIG d   1       7.435  -1.371  -3.900  0.00  0.00    -0.494 OA
BRANCH  34  35
ATOM     35  C   LIG d   1       7.424  -2.797  -3.986  0.00  0.00     0.079 C 
ATOM     36  H   LIG d   1       6.427  -3.137  -4.262  0.00  0.00     0.066 H 
ATOM     37  H   LIG d   1       8.141  -3.121  -4.741  0.00  0.00     0.066 H 
ATOM     38  H   LIG d   1       7.699  -3.221  -3.020  0.00  0.00     0.066 H 
ENDBRANCH  34  35
ENDBRANCH  25  34
ENDBRANCH  22  24
ENDBRANCH  19  21
ENDBRANCH  14  17
ENDBRANCH  13  14
ENDBRANCH   5  13
BRANCH   2  39
ATOM     39  C   LIG d   1      10.569   7.823  -3.883  0.00  0.00     0.343 C 
ATOM     40  O   LIG d   1      11.766   7.877  -3.672  0.00  0.00    -0.245 OA
BRANCH  39  41
ATOM     41  O   LIG d   1       9.728   7.445  -2.899  0.00  0.00    -0.458 OA
BRANCH  41  42
ATOM     42  C   LIG d   1      10.098   7.802  -1.542  0.00  0.00     0.098 C 
ATOM     43  H   LIG d   1      11.024   8.378  -1.557  0.00  0.00     0.073 H 
BRANCH  42  44
ATOM     44  C   LIG d   1       8.985   8.644  -0.914  0.00  0.00    -0.028 C 
ATOM     45  H   LIG d   1       8.600   8.136  -0.030  0.00  0.00     0.026 H 
ATOM     46  H   LIG d   1       9.382   9.618  -0.629  0.00  0.00     0.026 H 
ATOM     47  H   LIG d   1       8.179   8.778  -1.636  0.00  0.00     0.026 H 
ENDBRANCH  42  44
BRANCH  42  48
ATOM     48  C   LIG d   1      10.302   6.530  -0.716  0.00  0.00    -0.028 C 
ATOM     49  H   LIG d   1      11.004   6.731   0.093  0.00  0.00     0.026 H 
ATOM     50  H   LIG d   1       9.348   6.211  -0.298  0.00  0.00     0.026 H 
ATOM     51  H   LIG d   1      10.701   5.743  -1.356  0.00  0.00     0.026 H 
ENDBRANCH  42  48
ENDBRANCH  41  42
ENDBRANCH  39  41
ENDBRANCH   2  39
BRANCH   1  52
ATOM     52  C   LIG d   1       9.691  10.661  -4.819  0.00  0.00    -0.005 C 
ATOM     53  H   LIG d   1      10.702  10.817  -4.442  0.00  0.00     0.031 H 
ATOM     54  H   LIG d   1       9.399  11.509  -5.439  0.00  0.00     0.031 H 
ATOM     55  H   LIG d   1       9.001  10.571  -3.980  0.00  0.00     0.031 H 
ENDBRANCH   1  52
TORSDOF 13
ENDMDL
MODEL 6
REMARK VINA RESULT:      -6.1      4.603      8.265
REMARK  13 active torsions:
REMARK  status: ('A' for Active; 'I' for Inactive)
REMARK    1  A    between atoms: C_1  and  C_2 
REMARK    2  A    between atoms: C_3  and  C_26 
REMARK    3  A    between atoms: C_6  and  O_11 
REMARK    4  A    between atoms: O_11  and  C_12 
REMARK    5  A    between atoms: C_12  and  C_13 
REMARK       I    between atoms: C_13  and  N_15 
REMARK    6  A    between atoms: N_15  and  N_16 
REMARK    7  A    between atoms: C_17  and  C_18 
REMARK    8  A    between atoms: C_23  and  O_24 
REMARK    9  A    between atoms: O_24  and  C_25 
REMARK   10  A    between atoms: C_26  and  O_28 
REMARK   11  A    between atoms: O_28  and  C_29 
REMARK   12  A    between atoms: C_29  and  C_30 
REMARK   13  A    between atoms: C_29  and  C_31 
ROOT
ATOM      1  C   LIG d   1       7.386   1.368  -3.748  0.00  0.00     0.117 A 
ATOM      2  C   LIG d   1       7.436   0.230  -4.494  0.00  0.00     0.107 A 
ATOM      3  C   LIG d   1       6.344  -0.627  -3.990  0.00  0.00     0.038 A 
ATOM      4  C   LIG d   1       5.876  -1.895  -4.318  0.00  0.00    -0.008 A 
ATOM      5  C   LIG d   1       4.797  -2.423  -3.633  0.00  0.00     0.122 A 
ATOM      6  C   LIG d   1       4.192  -1.693  -2.615  0.00  0.00    -0.016 A 
ATOM      7  C   LIG d   1       4.655  -0.439  -2.282  0.00  0.00    -0.015 A 
ATOM      8  C   LIG d   1       5.735   0.109  -2.964  0.00  0.00     0.136 A 
ATOM      9  O   LIG d   1       6.390   1.285  -2.860  0.00  0.00    -0.459 OA
ATOM     10  H   LIG d   1       6.350  -2.462  -5.107  0.00  0.00     0.066 H 
ATOM     11  H   LIG d   1       3.354  -2.113  -2.081  0.00  0.00     0.066 H 
ATOM     12  H   LIG d   1       4.177   0.120  -1.490  0.00  0.00     0.066 H 
ENDROOT
BRANCH   5  13
ATOM     13  O   LIG d   1       4.331  -3.660  -3.951  0.00  0.00    -0.483 OA
BRANCH  13  14
ATOM     14  C   LIG d   1       5.006  -4.359  -4.999  0.00  0.00     0.167 C 
ATOM     15  H   LIG d   1       5.197  -5.386  -4.686  0.00  0.00     0.080 H 
ATOM     16  H   LIG d   1       5.953  -3.863  -5.214  0.00  0.00     0.080 H 
BRANCH  14  17
ATOM     17  C   LIG d   1       4.148  -4.362  -6.236  0.00  0.00     0.270 C 
ATOM     18  O   LIG d   1       3.343  -5.251  -6.414  0.00  0.00    -0.270 OA
ATOM     19  N   LIG d   1       4.275  -3.375  -7.146  0.00  0.00    -0.204 N 
ATOM     20  H   LIG d   1       4.918  -2.663  -7.004  0.00  0.00     0.177 HD
BRANCH  19  21
ATOM     21  N   LIG d   1       3.476  -3.377  -8.298  0.00  0.00    -0.188 NA
ATOM     22  C   LIG d   1       3.144  -2.256  -8.860  0.00  0.00     0.056 C 
ATOM     23  H   LIG d   1       3.483  -1.320  -8.440  0.00  0.00     0.085 H 
BRANCH  22  24
ATOM     24  C   LIG d   1       2.304  -2.259 -10.071  0.00  0.00     0.036 A 
ATOM     25  C   LIG d   1       2.244  -1.123 -10.889  0.00  0.00     0.129 A 
ATOM     26  C   LIG d   1       1.447  -1.135 -12.022  0.00  0.00    -0.019 A 
ATOM     27  C   LIG d   1       0.719  -2.264 -12.346  0.00  0.00    -0.058 A 
ATOM     28  H   LIG d   1       1.395  -0.261 -12.654  0.00  0.00     0.065 H 
ATOM     29  C   LIG d   1       0.780  -3.390 -11.543  0.00  0.00    -0.061 A 
ATOM     30  H   LIG d   1       0.099  -2.268 -13.231  0.00  0.00     0.062 H 
ATOM     31  C   LIG d   1       1.569  -3.396 -10.412  0.00  0.00    -0.050 A 
ATOM     32  H   LIG d   1       0.208  -4.269 -11.805  0.00  0.00     0.062 H 
ATOM     33  H   LIG d   1       1.614  -4.277  -9.788  0.00  0.00     0.062 H 
BRANCH  25  34
ATOM     34  O   LIG d   1       2.959  -0.014 -10.570  0.00  0.00    -0.494 OA
BRANCH  34  35
ATOM     35  C   LIG d   1       4.006   0.364 -11.467  0.00  0.00     0.079 C 
ATOM     36  H   LIG d   1       3.760   1.318 -11.932  0.00  0.00     0.066 H 
ATOM     37  H   LIG d   1       4.941   0.459 -10.913  0.00  0.00     0.066 H 
ATOM     38  H   LIG d   1       4.117  -0.399 -12.238  0.00  0.00     0.066 H 
ENDBRANCH  34  35
ENDBRANCH  25  34
ENDBRANCH  22  24
ENDBRANCH  19  21
ENDBRANCH  14  17
ENDBRANCH  13  14
ENDBRANCH   5  13
BRANCH   2  39
ATOM     39  C   LIG d   1       8.381  -0.081  -5.575  0.00  0.00     0.343 C 
ATOM     40  O   LIG d   1       9.343  -0.793  -5.356  0.00  0.00    -0.245 OA
BRANCH  39  41
ATOM     41  O   LIG d   1       8.182   0.421  -6.811  0.00  0.00    -0.458 OA
BRANCH  41  42
ATOM     42  C   LIG d   1       6.888   0.177  -7.421  0.00  0.00     0.098 C 
ATOM     43  H   LIG d   1       6.130   0.087  -6.642  0.00  0.00     0.073 H 
BRANCH  42  44
ATOM     44  C   LIG d   1       6.532   1.343  -8.346  0.00  0.00    -0.028 C 
ATOM     45  H   LIG d   1       6.127   0.954  -9.281  0.00  0.00     0.026 H 
ATOM     46  H   LIG d   1       5.788   1.976  -7.863  0.00  0.00     0.026 H 
ATOM     47  H   LIG d   1       7.427   1.928  -8.554  0.00  0.00     0.026 H 
ENDBRANCH  42  44
BRANCH  42  48
ATOM     48  C   LIG d   1       6.942  -1.120  -8.232  0.00  0.00    -0.028 C 
ATOM     49  H   LIG d   1       6.516  -0.947  -9.220  0.00  0.00     0.026 H 
ATOM     50  H   LIG d   1       7.979  -1.441  -8.334  0.00  0.00     0.026 H 
ATOM     51  H   LIG d   1       6.370  -1.893  -7.719  0.00  0.00     0.026 H 
ENDBRANCH  42  48
ENDBRANCH  41  42
ENDBRANCH  39  41
ENDBRANCH   2  39
BRANCH   1  52
ATOM     52  C   LIG d   1       8.314   2.545  -3.901  0.00  0.00    -0.005 C 
ATOM     53  H   LIG d   1       7.749   3.412  -4.246  0.00  0.00     0.031 H 
ATOM     54  H   LIG d   1       8.775   2.772  -2.939  0.00  0.00     0.031 H 
ATOM     55  H   LIG d   1       9.090   2.305  -4.627  0.00  0.00     0.031 H 
ENDBRANCH   1  52
TORSDOF 13
ENDMDL
MODEL 7
REMARK VINA RESULT:      -6.1      4.757      8.176
REMARK  13 active torsions:
REMARK  status: ('A' for Active; 'I' for Inactive)
REMARK    1  A    between atoms: C_1  and  C_2 
REMARK    2  A    between atoms: C_3  and  C_26 
REMARK    3  A    between atoms: C_6  and  O_11 
REMARK    4  A    between atoms: O_11  and  C_12 
REMARK    5  A    between atoms: C_12  and  C_13 
REMARK       I    between atoms: C_13  and  N_15 
REMARK    6  A    between atoms: N_15  and  N_16 
REMARK    7  A    between atoms: C_17  and  C_18 
REMARK    8  A    between atoms: C_23  and  O_24 
REMARK    9  A    between atoms: O_24  and  C_25 
REMARK   10  A    between atoms: C_26  and  O_28 
REMARK   11  A    between atoms: O_28  and  C_29 
REMARK   12  A    between atoms: C_29  and  C_30 
REMARK   13  A    between atoms: C_29  and  C_31 
ROOT
ATOM      1  C   LIG d   1       0.885  -5.313 -10.459  0.00  0.00     0.117 A 
ATOM      2  C   LIG d   1       2.164  -4.976 -10.136  0.00  0.00     0.107 A 
ATOM      3  C   LIG d   1       2.291  -3.539 -10.454  0.00  0.00     0.038 A 
ATOM      4  C   LIG d   1       3.324  -2.614 -10.362  0.00  0.00    -0.008 A 
ATOM      5  C   LIG d   1       3.106  -1.305 -10.752  0.00  0.00     0.122 A 
ATOM      6  C   LIG d   1       1.862  -0.922 -11.243  0.00  0.00    -0.016 A 
ATOM      7  C   LIG d   1       0.836  -1.836 -11.341  0.00  0.00    -0.015 A 
ATOM      8  C   LIG d   1       1.037  -3.154 -10.948  0.00  0.00     0.136 A 
ATOM      9  O   LIG d   1       0.238  -4.242 -10.931  0.00  0.00    -0.459 OA
ATOM     10  H   LIG d   1       4.292  -2.913  -9.984  0.00  0.00     0.066 H 
ATOM     11  H   LIG d   1       1.699   0.100 -11.550  0.00  0.00     0.066 H 
ATOM     12  H   LIG d   1      -0.127  -1.528 -11.723  0.00  0.00     0.066 H 
ENDROOT
BRANCH   5  13
ATOM     13  O   LIG d   1       4.110  -0.392 -10.661  0.00  0.00    -0.483 OA
BRANCH  13  14
ATOM     14  C   LIG d   1       3.751   0.930 -10.257  0.00  0.00     0.167 C 
ATOM     15  H   LIG d   1       2.689   1.092 -10.444  0.00  0.00     0.080 H 
ATOM     16  H   LIG d   1       4.334   1.655 -10.826  0.00  0.00     0.080 H 
BRANCH  14  17
ATOM     17  C   LIG d   1       4.034   1.101  -8.788  0.00  0.00     0.270 C 
ATOM     18  O   LIG d   1       5.028   1.695  -8.426  0.00  0.00    -0.270 OA
ATOM     19  N   LIG d   1       3.182   0.594  -7.874  0.00  0.00    -0.204 N 
ATOM     20  H   LIG d   1       2.387   0.119  -8.162  0.00  0.00     0.177 HD
BRANCH  19  21
ATOM     21  N   LIG d   1       3.446   0.753  -6.506  0.00  0.00    -0.188 NA
ATOM     22  C   LIG d   1       3.511  -0.287  -5.733  0.00  0.00     0.056 C 
ATOM     23  H   LIG d   1       3.362  -1.275  -6.143  0.00  0.00     0.085 H 
BRANCH  22  24
ATOM     24  C   LIG d   1       3.788  -0.120  -4.295  0.00  0.00     0.036 A 
ATOM     25  C   LIG d   1       4.360  -1.168  -3.562  0.00  0.00     0.129 A 
ATOM     26  C   LIG d   1       4.611  -1.001  -2.209  0.00  0.00    -0.019 A 
ATOM     27  C   LIG d   1       4.303   0.194  -1.589  0.00  0.00    -0.058 A 
ATOM     28  H   LIG d   1       5.048  -1.807  -1.639  0.00  0.00     0.065 H 
ATOM     29  C   LIG d   1       3.743   1.234  -2.311  0.00  0.00    -0.061 A 
ATOM     30  H   LIG d   1       4.501   0.319  -0.534  0.00  0.00     0.062 H 
ATOM     31  C   LIG d   1       3.487   1.086  -3.658  0.00  0.00    -0.050 A 
ATOM     32  H   LIG d   1       3.506   2.165  -1.818  0.00  0.00     0.062 H 
ATOM     33  H   LIG d   1       3.049   1.899  -4.218  0.00  0.00     0.062 H 
BRANCH  25  34
ATOM     34  O   LIG d   1       4.662  -2.343  -4.171  0.00  0.00    -0.494 OA
BRANCH  34  35
ATOM     35  C   LIG d   1       6.046  -2.680  -4.280  0.00  0.00     0.079 C 
ATOM     36  H   LIG d   1       6.557  -1.932  -4.886  0.00  0.00     0.066 H 
ATOM     37  H   LIG d   1       6.492  -2.709  -3.286  0.00  0.00     0.066 H 
ATOM     38  H   LIG d   1       6.146  -3.659  -4.751  0.00  0.00     0.066 H 
ENDBRANCH  34  35
ENDBRANCH  25  34
ENDBRANCH  22  24
ENDBRANCH  19  21
ENDBRANCH  14  17
ENDBRANCH  13  14
ENDBRANCH   5  13
BRANCH   2  39
ATOM     39  C   LIG d   1       3.202  -5.858  -9.586  0.00  0.00     0.343 C 
ATOM     40  O   LIG d   1       4.065  -6.309 -10.315  0.00  0.00    -0.245 OA
BRANCH  39  41
ATOM     41  O   LIG d   1       3.200  -6.167  -8.274  0.00  0.00    -0.458 OA
BRANCH  41  42
ATOM     42  C   LIG d   1       4.339  -5.725  -7.490  0.00  0.00     0.098 C 
ATOM     43  H   LIG d   1       5.215  -5.648  -8.134  0.00  0.00     0.073 H 
BRANCH  42  44
ATOM     44  C   LIG d   1       4.036  -4.357  -6.876  0.00  0.00    -0.028 C 
ATOM     45  H   LIG d   1       4.473  -4.301  -5.879  0.00  0.00     0.026 H 
ATOM     46  H   LIG d   1       4.462  -3.574  -7.504  0.00  0.00     0.026 H 
ATOM     47  H   LIG d   1       2.957  -4.220  -6.808  0.00  0.00     0.026 H 
ENDBRANCH  42  44
BRANCH  42  48
ATOM     48  C   LIG d   1       4.613  -6.736  -6.374  0.00  0.00    -0.028 C 
ATOM     49  H   LIG d   1       4.731  -7.729  -6.806  0.00  0.00     0.026 H 
ATOM     50  H   LIG d   1       5.527  -6.457  -5.849  0.00  0.00     0.026 H 
ATOM     51  H   LIG d   1       3.778  -6.739  -5.675  0.00  0.00     0.026 H 
ENDBRANCH  42  48
ENDBRANCH  41  42
ENDBRANCH  39  41
ENDBRANCH   2  39
BRANCH   1  52
ATOM     52  C   LIG d   1       0.287  -6.688 -10.306  0.00  0.00    -0.005 C 
ATOM     53  H   LIG d   1       0.966  -7.429 -10.730  0.00  0.00     0.031 H 
ATOM     54  H   LIG d   1       0.131  -6.901  -9.249  0.00  0.00     0.031 H 
ATOM     55  H   LIG d   1      -0.668  -6.730 -10.830  0.00  0.00     0.031 H 
ENDBRANCH   1  52
TORSDOF 13
ENDMDL
MODEL 8
REMARK VINA RESULT:      -6.0      7.692     14.279
REMARK  13 active torsions:
REMARK  status: ('A' for Active; 'I' for Inactive)
REMARK    1  A    between atoms: C_1  and  C_2 
REMARK    2  A    between atoms: C_3  and  C_26 
REMARK    3  A    between atoms: C_6  and  O_11 
REMARK    4  A    between atoms: O_11  and  C_12 
REMARK    5  A    between atoms: C_12  and  C_13 
REMARK       I    between atoms: C_13  and  N_15 
REMARK    6  A    between atoms: N_15  and  N_16 
REMARK    7  A    between atoms: C_17  and  C_18 
REMARK    8  A    between atoms: C_23  and  O_24 
REMARK    9  A    between atoms: O_24  and  C_25 
REMARK   10  A    between atoms: C_26  and  O_28 
REMARK   11  A    between atoms: O_28  and  C_29 
REMARK   12  A    between atoms: C_29  and  C_30 
REMARK   13  A    between atoms: C_29  and  C_31 
ROOT
ATOM      1  C   LIG d   1       9.692  10.624  -4.886  0.00  0.00     0.117 A 
ATOM      2  C   LIG d   1      10.442  10.040  -3.912  0.00  0.00     0.107 A 
ATOM      3  C   LIG d   1      10.460   8.598  -4.233  0.00  0.00     0.038 A 
ATOM      4  C   LIG d   1      11.035   7.480  -3.639  0.00  0.00    -0.008 A 
ATOM      5  C   LIG d   1      10.859   6.235  -4.214  0.00  0.00     0.122 A 
ATOM      6  C   LIG d   1      10.101   6.102  -5.373  0.00  0.00    -0.016 A 
ATOM      7  C   LIG d   1       9.526   7.206  -5.963  0.00  0.00    -0.015 A 
ATOM      8  C   LIG d   1       9.698   8.466  -5.401  0.00  0.00     0.136 A 
ATOM      9  O   LIG d   1       9.264   9.696  -5.749  0.00  0.00    -0.459 OA
ATOM     10  H   LIG d   1      11.620   7.584  -2.736  0.00  0.00     0.066 H 
ATOM     11  H   LIG d   1       9.964   5.127  -5.814  0.00  0.00     0.066 H 
ATOM     12  H   LIG d   1       8.939   7.092  -6.864  0.00  0.00     0.066 H 
ENDROOT
BRANCH   5  13
ATOM     13  O   LIG d   1      11.421   5.136  -3.641  0.00  0.00    -0.483 OA
BRANCH  13  14
ATOM     14  C   LIG d   1      11.245   3.890  -4.317  0.00  0.00     0.167 C 
ATOM     15  H   LIG d   1      12.198   3.362  -4.361  0.00  0.00     0.080 H 
ATOM     16  H   LIG d   1      10.885   4.074  -5.330  0.00  0.00     0.080 H 
BRANCH  14  17
ATOM     17  C   LIG d   1      10.240   3.052  -3.572  0.00  0.00     0.270 C 
ATOM     18  O   LIG d   1      10.539   2.549  -2.509  0.00  0.00    -0.270 OA
ATOM     19  N   LIG d   1       9.008   2.861  -4.085  0.00  0.00    -0.204 N 
ATOM     20  H   LIG d   1       8.769   3.263  -4.934  0.00  0.00     0.177 HD
BRANCH  19  21
ATOM     21  N   LIG d   1       8.073   2.081  -3.391  0.00  0.00    -0.188 NA
ATOM     22  C   LIG d   1       7.197   1.382  -4.046  0.00  0.00     0.056 C 
ATOM     23  H   LIG d   1       7.188   1.402  -5.126  0.00  0.00     0.085 H 
BRANCH  22  24
ATOM     24  C   LIG d   1       6.214   0.562  -3.316  0.00  0.00     0.036 A 
ATOM     25  C   LIG d   1       6.245  -0.834  -3.422  0.00  0.00     0.129 A 
ATOM     26  C   LIG d   1       5.313  -1.595  -2.735  0.00  0.00    -0.019 A 
ATOM     27  C   LIG d   1       4.360  -0.979  -1.947  0.00  0.00    -0.058 A 
ATOM     28  H   LIG d   1       5.330  -2.672  -2.817  0.00  0.00     0.065 H 
ATOM     29  C   LIG d   1       4.330   0.400  -1.835  0.00  0.00    -0.061 A 
ATOM     30  H   LIG d   1       3.635  -1.577  -1.413  0.00  0.00     0.062 H 
ATOM     31  C   LIG d   1       5.250   1.173  -2.510  0.00  0.00    -0.050 A 
ATOM     32  H   LIG d   1       3.582   0.873  -1.215  0.00  0.00     0.062 H 
ATOM     33  H   LIG d   1       5.223   2.249  -2.421  0.00  0.00     0.062 H 
BRANCH  25  34
ATOM     34  O   LIG d   1       7.181  -1.440  -4.197  0.00  0.00    -0.494 OA
BRANCH  34  35
ATOM     35  C   LIG d   1       6.722  -2.076  -5.391  0.00  0.00     0.079 C 
ATOM     36  H   LIG d   1       6.715  -1.355  -6.208  0.00  0.00     0.066 H 
ATOM     37  H   LIG d   1       7.389  -2.902  -5.641  0.00  0.00     0.066 H 
ATOM     38  H   LIG d   1       5.713  -2.459  -5.235  0.00  0.00     0.066 H 
ENDBRANCH  34  35
ENDBRANCH  25  34
ENDBRANCH  22  24
ENDBRANCH  19  21
ENDBRANCH  14  17
ENDBRANCH  13  14
ENDBRANCH   5  13
BRANCH   2  39
ATOM     39  C   LIG d   1      11.096  10.704  -2.776  0.00  0.00     0.343 C 
ATOM     40  O   LIG d   1      12.266  11.027  -2.853  0.00  0.00    -0.245 OA
BRANCH  39  41
ATOM     41  O   LIG d   1      10.399  10.956  -1.650  0.00  0.00    -0.458 OA
BRANCH  41  42
ATOM     42  C   LIG d   1      10.171   9.840  -0.752  0.00  0.00     0.098 C 
ATOM     43  H   LIG d   1      10.720   8.968  -1.108  0.00  0.00     0.073 H 
BRANCH  42  44
ATOM     44  C   LIG d   1      10.656  10.207   0.653  0.00  0.00    -0.028 C 
ATOM     45  H   LIG d   1      11.542   9.621   0.896  0.00  0.00     0.026 H 
ATOM     46  H   LIG d   1      10.901  11.268   0.687  0.00  0.00     0.026 H 
ATOM     47  H   LIG d   1       9.869   9.993   1.377  0.00  0.00     0.026 H 
ENDBRANCH  42  44
BRANCH  42  48
ATOM     48  C   LIG d   1       8.676   9.518  -0.707  0.00  0.00    -0.028 C 
ATOM     49  H   LIG d   1       8.533   8.514  -0.308  0.00  0.00     0.026 H 
ATOM     50  H   LIG d   1       8.167  10.239  -0.067  0.00  0.00     0.026 H 
ATOM     51  H   LIG d   1       8.263   9.571  -1.714  0.00  0.00     0.026 H 
ENDBRANCH  42  48
ENDBRANCH  41  42
ENDBRANCH  39  41
ENDBRANCH   2  39
BRANCH   1  52
ATOM     52  C   LIG d   1       9.389  12.098  -4.979  0.00  0.00    -0.005 C 
ATOM     53  H   LIG d   1       9.662  12.585  -4.042  0.00  0.00     0.031 H 
ATOM     54  H   LIG d   1       9.961  12.535  -5.796  0.00  0.00     0.031 H 
ATOM     55  H   LIG d   1       8.325  12.239  -5.164  0.00  0.00     0.031 H 
ENDBRANCH   1  52
TORSDOF 13
ENDMDL
MODEL 9
REMARK VINA RESULT:      -5.9      7.222     13.568
REMARK  13 active torsions:
REMARK  status: ('A' for Active; 'I' for Inactive)
REMARK    1  A    between atoms: C_1  and  C_2 
REMARK    2  A    between atoms: C_3  and  C_26 
REMARK    3  A    between atoms: C_6  and  O_11 
REMARK    4  A    between atoms: O_11  and  C_12 
REMARK    5  A    between atoms: C_12  and  C_13 
REMARK       I    between atoms: C_13  and  N_15 
REMARK    6  A    between atoms: N_15  and  N_16 
REMARK    7  A    between atoms: C_17  and  C_18 
REMARK    8  A    between atoms: C_23  and  O_24 
REMARK    9  A    between atoms: O_24  and  C_25 
REMARK   10  A    between atoms: C_26  and  O_28 
REMARK   11  A    between atoms: O_28  and  C_29 
REMARK   12  A    between atoms: C_29  and  C_30 
REMARK   13  A    between atoms: C_29  and  C_31 
ROOT
ATOM      1  C   LIG d   1       9.970   9.652  -6.983  0.00  0.00     0.117 A 
ATOM      2  C   LIG d   1      10.247   8.582  -7.777  0.00  0.00     0.107 A 
ATOM      3  C   LIG d   1       9.970   7.389  -6.951  0.00  0.00     0.038 A 
ATOM      4  C   LIG d   1      10.056   6.018  -7.169  0.00  0.00    -0.008 A 
ATOM      5  C   LIG d   1       9.707   5.143  -6.156  0.00  0.00     0.122 A 
ATOM      6  C   LIG d   1       9.284   5.634  -4.925  0.00  0.00    -0.016 A 
ATOM      7  C   LIG d   1       9.200   6.991  -4.703  0.00  0.00    -0.015 A 
ATOM      8  C   LIG d   1       9.542   7.884  -5.712  0.00  0.00     0.136 A 
ATOM      9  O   LIG d   1       9.560   9.232  -5.781  0.00  0.00    -0.459 OA
ATOM     10  H   LIG d   1      10.389   5.638  -8.124  0.00  0.00     0.066 H 
ATOM     11  H   LIG d   1       9.017   4.945  -4.138  0.00  0.00     0.066 H 
ATOM     12  H   LIG d   1       8.870   7.361  -3.743  0.00  0.00     0.066 H 
ENDROOT
BRANCH   5  13
ATOM     13  O   LIG d   1       9.785   3.801  -6.362  0.00  0.00    -0.483 OA
BRANCH  13  14
ATOM     14  C   LIG d   1      10.196   2.997  -5.254  0.00  0.00     0.167 C 
ATOM     15  H   LIG d   1      10.766   3.608  -4.553  0.00  0.00     0.080 H 
ATOM     16  H   LIG d   1      10.819   2.177  -5.611  0.00  0.00     0.080 H 
BRANCH  14  17
ATOM     17  C   LIG d   1       8.981   2.439  -4.560  0.00  0.00     0.270 C 
ATOM     18  O   LIG d   1       8.903   2.477  -3.350  0.00  0.00    -0.270 OA
ATOM     19  N   LIG d   1       7.980   1.898  -5.283  0.00  0.00    -0.204 N 
ATOM     20  H   LIG d   1       8.042   1.869  -6.251  0.00  0.00     0.177 HD
BRANCH  19  21
ATOM     21  N   LIG d   1       6.850   1.379  -4.638  0.00  0.00    -0.188 NA
ATOM     22  C   LIG d   1       6.675   0.095  -4.569  0.00  0.00     0.056 C 
ATOM     23  H   LIG d   1       7.400  -0.573  -5.009  0.00  0.00     0.085 H 
BRANCH  22  24
ATOM     24  C   LIG d   1       5.486  -0.450  -3.890  0.00  0.00     0.036 A 
ATOM     25  C   LIG d   1       4.234  -0.407  -4.517  0.00  0.00     0.129 A 
ATOM     26  C   LIG d   1       3.123  -0.918  -3.867  0.00  0.00    -0.019 A 
ATOM     27  C   LIG d   1       3.249  -1.472  -2.608  0.00  0.00    -0.058 A 
ATOM     28  H   LIG d   1       2.155  -0.883  -4.346  0.00  0.00     0.065 H 
ATOM     29  C   LIG d   1       4.486  -1.523  -1.987  0.00  0.00    -0.061 A 
ATOM     30  H   LIG d   1       2.380  -1.870  -2.106  0.00  0.00     0.062 H 
ATOM     31  C   LIG d   1       5.603  -1.019  -2.620  0.00  0.00    -0.050 A 
ATOM     32  H   LIG d   1       4.576  -1.959  -1.003  0.00  0.00     0.062 H 
ATOM     33  H   LIG d   1       6.565  -1.060  -2.131  0.00  0.00     0.062 H 
BRANCH  25  34
ATOM     34  O   LIG d   1       4.110   0.139  -5.754  0.00  0.00    -0.494 OA
BRANCH  34  35
ATOM     35  C   LIG d   1       2.792   0.215  -6.301  0.00  0.00     0.079 C 
ATOM     36  H   LIG d   1       2.830   0.700  -7.276  0.00  0.00     0.066 H 
ATOM     37  H   LIG d   1       2.385  -0.791  -6.411  0.00  0.00     0.066 H 
ATOM     38  H   LIG d   1       2.154   0.793  -5.632  0.00  0.00     0.066 H 
ENDBRANCH  34  35
ENDBRANCH  25  34
ENDBRANCH  22  24
ENDBRANCH  19  21
ENDBRANCH  14  17
ENDBRANCH  13  14
ENDBRANCH   5  13
BRANCH   2  39
ATOM     39  C   LIG d   1      10.723   8.607  -9.167  0.00  0.00     0.343 C 
ATOM     40  O   LIG d   1      11.906   8.768  -9.401  0.00  0.00    -0.245 OA
BRANCH  39  41
ATOM     41  O   LIG d   1       9.850   8.452 -10.182  0.00  0.00    -0.458 OA
BRANCH  41  42
ATOM     42  C   LIG d   1      10.111   7.372 -11.116  0.00  0.00     0.098 C 
ATOM     43  H   LIG d   1      11.164   7.095 -11.067  0.00  0.00     0.073 H 
BRANCH  42  44
ATOM     44  C   LIG d   1       9.248   6.162 -10.752  0.00  0.00    -0.028 C 
ATOM     45  H   LIG d   1       8.211   6.360 -11.023  0.00  0.00     0.026 H 
ATOM     46  H   LIG d   1       9.604   5.285 -11.292  0.00  0.00     0.026 H 
ATOM     47  H   LIG d   1       9.314   5.979  -9.679  0.00  0.00     0.026 H 
ENDBRANCH  42  44
BRANCH  42  48
ATOM     48  C   LIG d   1       9.771   7.832 -12.536  0.00  0.00    -0.028 C 
ATOM     49  H   LIG d   1       9.464   8.878 -12.514  0.00  0.00     0.026 H 
ATOM     50  H   LIG d   1      10.648   7.724 -13.173  0.00  0.00     0.026 H 
ATOM     51  H   LIG d   1       8.958   7.222 -12.929  0.00  0.00     0.026 H 
ENDBRANCH  42  48
ENDBRANCH  41  42
ENDBRANCH  39  41
ENDBRANCH   2  39
BRANCH   1  52
ATOM     52  C   LIG d   1      10.105  11.095  -7.396  0.00  0.00    -0.005 C 
ATOM     53  H   LIG d   1       9.225  11.651  -7.071  0.00  0.00     0.031 H 
ATOM     54  H   LIG d   1      10.995  11.523  -6.935  0.00  0.00     0.031 H 
ATOM     55  H   LIG d   1      10.192  11.156  -8.480  0.00  0.00     0.031 H 
ENDBRANCH   1  52
TORSDOF 13
ENDMDL
MODEL 10
REMARK VINA RESULT:      -5.8      6.207     12.318
REMARK  13 active torsions:
REMARK  status: ('A' for Active; 'I' for Inactive)
REMARK    1  A    between atoms: C_1  and  C_2 
REMARK    2  A    between atoms: C_3  and  C_26 
REMARK    3  A    between atoms: C_6  and  O_11 
REMARK    4  A    between atoms: O_11  and  C_12 
REMARK    5  A    between atoms: C_12  and  C_13 
REMARK       I    between atoms: C_13  and  N_15 
REMARK    6  A    between atoms: N_15  and  N_16 
REMARK    7  A    between atoms: C_17  and  C_18 
REMARK    8  A    between atoms: C_23  and  O_24 
REMARK    9  A    between atoms: O_24  and  C_25 
REMARK   10  A    between atoms: C_26  and  O_28 
REMARK   11  A    between atoms: O_28  and  C_29 
REMARK   12  A    between atoms: C_29  and  C_30 
REMARK   13  A    between atoms: C_29  and  C_31 
ROOT
ATOM      1  C   LIG d   1      10.008   8.517  -3.785  0.00  0.00     0.117 A 
ATOM      2  C   LIG d   1       9.949   7.225  -3.360  0.00  0.00     0.107 A 
ATOM      3  C   LIG d   1       9.931   6.402  -4.587  0.00  0.00     0.038 A 
ATOM      4  C   LIG d   1       9.873   5.035  -4.836  0.00  0.00    -0.008 A 
ATOM      5  C   LIG d   1       9.877   4.579  -6.142  0.00  0.00     0.122 A 
ATOM      6  C   LIG d   1       9.927   5.484  -7.197  0.00  0.00    -0.016 A 
ATOM      7  C   LIG d   1       9.980   6.839  -6.956  0.00  0.00    -0.015 A 
ATOM      8  C   LIG d   1       9.983   7.314  -5.649  0.00  0.00     0.136 A 
ATOM      9  O   LIG d   1      10.026   8.556  -5.122  0.00  0.00    -0.459 OA
ATOM     10  H   LIG d   1       9.830   4.333  -4.015  0.00  0.00     0.066 H 
ATOM     11  H   LIG d   1       9.925   5.120  -8.213  0.00  0.00     0.066 H 
ATOM     12  H   LIG d   1      10.019   7.533  -7.783  0.00  0.00     0.066 H 
ENDROOT
BRANCH   5  13
ATOM     13  O   LIG d   1       9.825   3.243  -6.394  0.00  0.00    -0.483 OA
BRANCH  13  14
ATOM     14  C   LIG d   1       9.034   2.824  -7.508  0.00  0.00     0.167 C 
ATOM     15  H   LIG d   1       9.668   2.313  -8.233  0.00  0.00     0.080 H 
ATOM     16  H   LIG d   1       8.576   3.695  -7.976  0.00  0.00     0.080 H 
BRANCH  14  17
ATOM     17  C   LIG d   1       7.957   1.884  -7.034  0.00  0.00     0.270 C 
ATOM     18  O   LIG d   1       7.000   1.651  -7.742  0.00  0.00    -0.270 OA
ATOM     19  N   LIG d   1       8.056   1.301  -5.822  0.00  0.00    -0.204 N 
ATOM     20  H   LIG d   1       8.821   1.487  -5.256  0.00  0.00     0.177 HD
BRANCH  19  21
ATOM     21  N   LIG d   1       7.053   0.427  -5.381  0.00  0.00    -0.188 NA
ATOM     22  C   LIG d   1       6.975   0.109  -4.125  0.00  0.00     0.056 C 
ATOM     23  H   LIG d   1       7.683   0.519  -3.420  0.00  0.00     0.085 H 
BRANCH  22  24
ATOM     24  C   LIG d   1       5.921  -0.810  -3.661  0.00  0.00     0.036 A 
ATOM     25  C   LIG d   1       5.032  -0.412  -2.655  0.00  0.00     0.129 A 
ATOM     26  C   LIG d   1       4.048  -1.286  -2.224  0.00  0.00    -0.019 A 
ATOM     27  C   LIG d   1       3.942  -2.544  -2.786  0.00  0.00    -0.058 A 
ATOM     28  H   LIG d   1       3.362  -0.985  -1.445  0.00  0.00     0.065 H 
ATOM     29  C   LIG d   1       4.816  -2.939  -3.784  0.00  0.00    -0.061 A 
ATOM     30  H   LIG d   1       3.173  -3.222  -2.446  0.00  0.00     0.062 H 
ATOM     31  C   LIG d   1       5.800  -2.081  -4.227  0.00  0.00    -0.050 A 
ATOM     32  H   LIG d   1       4.725  -3.924  -4.220  0.00  0.00     0.062 H 
ATOM     33  H   LIG d   1       6.480  -2.394  -5.006  0.00  0.00     0.062 H 
BRANCH  25  34
ATOM     34  O   LIG d   1       5.136   0.824  -2.102  0.00  0.00    -0.494 OA
BRANCH  34  35
ATOM     35  C   LIG d   1       3.961   1.637  -2.103  0.00  0.00     0.079 C 
ATOM     36  H   LIG d   1       3.866   2.141  -1.142  0.00  0.00     0.066 H 
ATOM     37  H   LIG d   1       4.035   2.380  -2.898  0.00  0.00     0.066 H 
ATOM     38  H   LIG d   1       3.085   1.010  -2.273  0.00  0.00     0.066 H 
ENDBRANCH  34  35
ENDBRANCH  25  34
ENDBRANCH  22  24
ENDBRANCH  19  21
ENDBRANCH  14  17
ENDBRANCH  13  14
ENDBRANCH   5  13
BRANCH   2  39
ATOM     39  C   LIG d   1       9.912   6.748  -1.971  0.00  0.00     0.343 C 
ATOM     40  O   LIG d   1       9.035   7.131  -1.220  0.00  0.00    -0.245 OA
BRANCH  39  41
ATOM     41  O   LIG d   1      10.848   5.884  -1.529  0.00  0.00    -0.458 OA
BRANCH  41  42
ATOM     42  C   LIG d   1      12.234   6.219  -1.799  0.00  0.00     0.098 C 
ATOM     43  H   LIG d   1      12.277   7.063  -2.488  0.00  0.00     0.073 H 
BRANCH  42  44
ATOM     44  C   LIG d   1      12.933   6.595  -0.490  0.00  0.00    -0.028 C 
ATOM     45  H   LIG d   1      12.340   6.240   0.353  0.00  0.00     0.026 H 
ATOM     46  H   LIG d   1      13.920   6.134  -0.460  0.00  0.00     0.026 H 
ATOM     47  H   LIG d   1      13.035   7.679  -0.431  0.00  0.00     0.026 H 
ENDBRANCH  42  44
BRANCH  42  48
ATOM     48  C   LIG d   1      12.938   5.014  -2.425  0.00  0.00    -0.028 C 
ATOM     49  H   LIG d   1      13.898   4.859  -1.934  0.00  0.00     0.026 H 
ATOM     50  H   LIG d   1      12.319   4.126  -2.300  0.00  0.00     0.026 H 
ATOM     51  H   LIG d   1      13.098   5.199  -3.487  0.00  0.00     0.026 H 
ENDBRANCH  42  48
ENDBRANCH  41  42
ENDBRANCH  39  41
ENDBRANCH   2  39
BRANCH   1  52
ATOM     52  C   LIG d   1      10.045   9.724  -2.883  0.00  0.00    -0.005 C 
ATOM     53  H   LIG d   1       9.387   9.560  -2.028  0.00  0.00     0.031 H 
ATOM     54  H   LIG d   1      11.064   9.884  -2.532  0.00  0.00     0.031 H 
ATOM     55  H   LIG d   1       9.709  10.601  -3.435  0.00  0.00     0.031 H 
ENDBRANCH   1  52
TORSDOF 13
ENDMDL
