MODEL 1
REMARK VINA RESULT:      -7.4      0.000      0.000
REMARK  2 active torsions:
REMARK  status: ('A' for Active; 'I' for Inactive)
REMARK    1  A    between atoms: C_1  and  N_2 
REMARK    2  A    between atoms: N_25  and  C_28 
ROOT
ATOM      1  N   LIG d   1       7.771   0.893  -9.476  0.00  0.00    -0.228 N 
ATOM      2  C   LIG d   1       6.659   0.520  -8.828  0.00  0.00     0.240 A 
ATOM      3  O   LIG d   1       6.376   1.066  -7.784  0.00  0.00    -0.274 OA
ATOM      4  C   LIG d   1       5.752  -0.555  -9.359  0.00  0.00     0.146 A 
ATOM      5  C   LIG d   1       5.657  -1.692  -8.340  0.00  0.00    -0.000 C 
ATOM      6  C   LIG d   1       4.904  -1.282  -7.104  0.00  0.00    -0.005 A 
ATOM      7  C   LIG d   1       5.078  -1.999  -5.955  0.00  0.00    -0.046 A 
ATOM      8  C   LIG d   1       4.356  -1.622  -4.807  0.00  0.00     0.001 A 
ATOM      9  C   LIG d   1       4.497  -2.316  -3.595  0.00  0.00    -0.053 A 
ATOM     10  C   LIG d   1       3.772  -1.931  -2.509  0.00  0.00    -0.061 A 
ATOM     11  C   LIG d   1       2.891  -0.854  -2.582  0.00  0.00    -0.060 A 
ATOM     12  C   LIG d   1       2.733  -0.156  -3.740  0.00  0.00    -0.036 A 
ATOM     13  C   LIG d   1       3.467  -0.520  -4.881  0.00  0.00     0.073 A 
ATOM     14  N   LIG d   1       3.344   0.155  -6.028  0.00  0.00    -0.232 NA
ATOM     15  C   LIG d   1       4.027  -0.184  -7.099  0.00  0.00     0.126 A 
ATOM     16  N   LIG d   1       3.911   0.555  -8.269  0.00  0.00    -0.310 N 
ATOM     17  C   LIG d   1       4.350   0.024  -9.577  0.00  0.00     0.048 C 
ATOM     18  H   LIG d   1       3.664  -0.744  -9.934  0.00  0.00     0.051 H 
ATOM     19  C   LIG d   1       4.389   1.225 -10.538  0.00  0.00    -0.032 C 
ATOM     20  C   LIG d   1       3.272   2.139  -9.960  0.00  0.00    -0.035 C 
ATOM     21  C   LIG d   1       3.448   1.933  -8.435  0.00  0.00     0.014 C 
ATOM     22  C   LIG d   1       6.276  -1.094 -10.661  0.00  0.00     0.240 A 
ATOM     23  O   LIG d   1       5.655  -1.966 -11.229  0.00  0.00    -0.274 OA
ATOM     24  N   LIG d   1       7.409  -0.637 -11.213  0.00  0.00    -0.228 N 
ATOM     25  C   LIG d   1       8.137   0.333 -10.640  0.00  0.00     0.317 A 
ATOM     26  O   LIG d   1       9.155   0.711 -11.185  0.00  0.00    -0.252 OA
ATOM     27  H   LIG d   1       5.149  -2.539  -8.799  0.00  0.00     0.033 H 
ATOM     28  H   LIG d   1       6.664  -1.997  -8.055  0.00  0.00     0.033 H 
ATOM     29  H   LIG d   1       5.756  -2.839  -5.927  0.00  0.00     0.063 H 
ATOM     30  H   LIG d   1       5.178  -3.152  -3.526  0.00  0.00     0.062 H 
ATOM     31  H   LIG d   1       3.881  -2.467  -1.577  0.00  0.00     0.062 H 
ATOM     32  H   LIG d   1       2.324  -0.570  -1.708  0.00  0.00     0.062 H 
ATOM     33  H   LIG d   1       2.046   0.677  -3.781  0.00  0.00     0.064 H 
ATOM     34  H   LIG d   1       5.359   1.722 -10.500  0.00  0.00     0.028 H 
ATOM     35  H   LIG d   1       4.151   0.916 -11.556  0.00  0.00     0.028 H 
ATOM     36  H   LIG d   1       3.441   3.181 -10.235  0.00  0.00     0.028 H 
ATOM     37  H   LIG d   1       2.288   1.806 -10.287  0.00  0.00     0.028 H 
ATOM     38  H   LIG d   1       2.495   2.074  -7.924  0.00  0.00     0.046 H 
ATOM     39  H   LIG d   1       4.191   2.628  -8.046  0.00  0.00     0.046 H 
ENDROOT
BRANCH   1  40
ATOM     40  C   LIG d   1       8.610   1.946  -8.900  0.00  0.00     0.012 C 
ATOM     41  H   LIG d   1       9.418   2.187  -9.592  0.00  0.00     0.043 H 
ATOM     42  H   LIG d   1       8.006   2.836  -8.723  0.00  0.00     0.043 H 
ATOM     43  H   LIG d   1       9.032   1.599  -7.956  0.00  0.00     0.043 H 
ENDBRANCH   1  40
BRANCH  24  44
ATOM     44  C   LIG d   1       7.861  -1.211 -12.483  0.00  0.00     0.012 C 
ATOM     45  H   LIG d   1       7.038  -1.752 -12.950  0.00  0.00     0.043 H 
ATOM     46  H   LIG d   1       8.192  -0.411 -13.145  0.00  0.00     0.043 H 
ATOM     47  H   LIG d   1       8.688  -1.895 -12.299  0.00  0.00     0.043 H 
ENDBRANCH  24  44
TORSDOF 2
ENDMDL
MODEL 2
REMARK VINA RESULT:      -7.3      1.543      1.907
REMARK  2 active torsions:
REMARK  status: ('A' for Active; 'I' for Inactive)
REMARK    1  A    between atoms: C_1  and  N_2 
REMARK    2  A    between atoms: N_25  and  C_28 
ROOT
ATOM      1  N   LIG d   1       6.437  -0.810 -10.020  0.00  0.00    -0.228 N 
ATOM      2  C   LIG d   1       5.566  -0.685  -9.009  0.00  0.00     0.240 A 
ATOM      3  O   LIG d   1       5.784   0.134  -8.143  0.00  0.00    -0.274 OA
ATOM      4  C   LIG d   1       4.328  -1.532  -8.918  0.00  0.00     0.146 A 
ATOM      5  C   LIG d   1       4.356  -2.339  -7.618  0.00  0.00    -0.000 C 
ATOM      6  C   LIG d   1       4.181  -1.465  -6.406  0.00  0.00    -0.005 A 
ATOM      7  C   LIG d   1       4.589  -1.933  -5.190  0.00  0.00    -0.046 A 
ATOM      8  C   LIG d   1       4.405  -1.117  -4.056  0.00  0.00     0.001 A 
ATOM      9  C   LIG d   1       4.808  -1.541  -2.781  0.00  0.00    -0.053 A 
ATOM     10  C   LIG d   1       4.603  -0.730  -1.706  0.00  0.00    -0.061 A 
ATOM     11  C   LIG d   1       3.997   0.516  -1.854  0.00  0.00    -0.060 A 
ATOM     12  C   LIG d   1       3.598   0.959  -3.078  0.00  0.00    -0.036 A 
ATOM     13  C   LIG d   1       3.798   0.154  -4.211  0.00  0.00     0.073 A 
ATOM     14  N   LIG d   1       3.429   0.568  -5.428  0.00  0.00    -0.232 NA
ATOM     15  C   LIG d   1       3.612  -0.183  -6.492  0.00  0.00     0.126 A 
ATOM     16  N   LIG d   1       3.255   0.282  -7.750  0.00  0.00    -0.310 N 
ATOM     17  C   LIG d   1       3.092  -0.626  -8.904  0.00  0.00     0.048 C 
ATOM     18  H   LIG d   1       2.180  -1.216  -8.808  0.00  0.00     0.051 H 
ATOM     19  C   LIG d   1       3.046   0.269 -10.155  0.00  0.00    -0.032 C 
ATOM     20  C   LIG d   1       2.417   1.576  -9.595  0.00  0.00    -0.035 C 
ATOM     21  C   LIG d   1       3.063   1.665  -8.190  0.00  0.00     0.014 C 
ATOM     22  C   LIG d   1       4.243  -2.473 -10.087  0.00  0.00     0.240 A 
ATOM     23  O   LIG d   1       3.295  -3.224 -10.170  0.00  0.00    -0.274 OA
ATOM     24  N   LIG d   1       5.183  -2.504 -11.043  0.00  0.00    -0.228 N 
ATOM     25  C   LIG d   1       6.251  -1.692 -11.014  0.00  0.00     0.317 A 
ATOM     26  O   LIG d   1       7.072  -1.762 -11.907  0.00  0.00    -0.252 OA
ATOM     27  H   LIG d   1       3.554  -3.076  -7.641  0.00  0.00     0.033 H 
ATOM     28  H   LIG d   1       5.311  -2.859  -7.545  0.00  0.00     0.033 H 
ATOM     29  H   LIG d   1       5.041  -2.908  -5.098  0.00  0.00     0.063 H 
ATOM     30  H   LIG d   1       5.280  -2.504  -2.653  0.00  0.00     0.062 H 
ATOM     31  H   LIG d   1       4.913  -1.058  -0.724  0.00  0.00     0.062 H 
ATOM     32  H   LIG d   1       3.842   1.138  -0.986  0.00  0.00     0.062 H 
ATOM     33  H   LIG d   1       3.131   1.928  -3.177  0.00  0.00     0.064 H 
ATOM     34  H   LIG d   1       4.050   0.453 -10.538  0.00  0.00     0.028 H 
ATOM     35  H   LIG d   1       2.411  -0.171 -10.924  0.00  0.00     0.028 H 
ATOM     36  H   LIG d   1       2.694   2.434 -10.207  0.00  0.00     0.028 H 
ATOM     37  H   LIG d   1       1.334   1.485  -9.520  0.00  0.00     0.028 H 
ATOM     38  H   LIG d   1       2.399   2.190  -7.503  0.00  0.00     0.046 H 
ATOM     39  H   LIG d   1       4.024   2.177  -8.250  0.00  0.00     0.046 H 
ENDROOT
BRANCH   1  40
ATOM     40  C   LIG d   1       7.625   0.047 -10.045  0.00  0.00     0.012 C 
ATOM     41  H   LIG d   1       8.236  -0.203 -10.913  0.00  0.00     0.043 H 
ATOM     42  H   LIG d   1       7.318   1.092 -10.105  0.00  0.00     0.043 H 
ATOM     43  H   LIG d   1       8.205  -0.109  -9.135  0.00  0.00     0.043 H 
ENDBRANCH   1  40
BRANCH  24  44
ATOM     44  C   LIG d   1       5.036  -3.448 -12.152  0.00  0.00     0.012 C 
ATOM     45  H   LIG d   1       4.821  -2.900 -13.070  0.00  0.00     0.043 H 
ATOM     46  H   LIG d   1       5.962  -4.011 -12.274  0.00  0.00     0.043 H 
ATOM     47  H   LIG d   1       4.219  -4.136 -11.940  0.00  0.00     0.043 H 
ENDBRANCH  24  44
TORSDOF 2
ENDMDL
MODEL 3
REMARK VINA RESULT:      -7.2      2.678      4.383
REMARK  2 active torsions:
REMARK  status: ('A' for Active; 'I' for Inactive)
REMARK    1  A    between atoms: C_1  and  N_2 
REMARK    2  A    between atoms: N_25  and  C_28 
ROOT
ATOM      1  N   LIG d   1       3.033  -3.588  -9.411  0.00  0.00    -0.228 N 
ATOM      2  C   LIG d   1       3.558  -2.598  -8.676  0.00  0.00     0.240 A 
ATOM      3  O   LIG d   1       4.116  -2.869  -7.635  0.00  0.00    -0.274 OA
ATOM      4  C   LIG d   1       3.474  -1.160  -9.105  0.00  0.00     0.146 A 
ATOM      5  C   LIG d   1       2.727  -0.352  -8.041  0.00  0.00    -0.000 C 
ATOM      6  C   LIG d   1       3.524  -0.215  -6.773  0.00  0.00    -0.005 A 
ATOM      7  C   LIG d   1       2.873   0.095  -5.613  0.00  0.00    -0.046 A 
ATOM      8  C   LIG d   1       3.628   0.241  -4.433  0.00  0.00     0.001 A 
ATOM      9  C   LIG d   1       3.014   0.553  -3.210  0.00  0.00    -0.053 A 
ATOM     10  C   LIG d   1       3.777   0.699  -2.092  0.00  0.00    -0.061 A 
ATOM     11  C   LIG d   1       5.161   0.543  -2.144  0.00  0.00    -0.060 A 
ATOM     12  C   LIG d   1       5.788   0.235  -3.313  0.00  0.00    -0.036 A 
ATOM     13  C   LIG d   1       5.033   0.071  -4.486  0.00  0.00     0.073 A 
ATOM     14  N   LIG d   1       5.619  -0.244  -5.647  0.00  0.00    -0.232 NA
ATOM     15  C   LIG d   1       4.918  -0.396  -6.749  0.00  0.00     0.126 A 
ATOM     16  N   LIG d   1       5.543  -0.760  -7.934  0.00  0.00    -0.310 N 
ATOM     17  C   LIG d   1       4.889  -0.588  -9.248  0.00  0.00     0.048 C 
ATOM     18  H   LIG d   1       4.855   0.464  -9.530  0.00  0.00     0.051 H 
ATOM     19  C   LIG d   1       5.719  -1.407 -10.253  0.00  0.00    -0.032 C 
ATOM     20  C   LIG d   1       7.143  -1.331  -9.634  0.00  0.00    -0.035 C 
ATOM     21  C   LIG d   1       6.838  -1.416  -8.117  0.00  0.00     0.014 C 
ATOM     22  C   LIG d   1       2.754  -1.041 -10.419  0.00  0.00     0.240 A 
ATOM     23  O   LIG d   1       2.607   0.057 -10.912  0.00  0.00    -0.274 OA
ATOM     24  N   LIG d   1       2.271  -2.113 -11.063  0.00  0.00    -0.228 N 
ATOM     25  C   LIG d   1       2.410  -3.355 -10.576  0.00  0.00     0.317 A 
ATOM     26  O   LIG d   1       1.954  -4.291 -11.202  0.00  0.00    -0.252 OA
ATOM     27  H   LIG d   1       2.514   0.641  -8.435  0.00  0.00     0.033 H 
ATOM     28  H   LIG d   1       1.786  -0.851  -7.815  0.00  0.00     0.033 H 
ATOM     29  H   LIG d   1       1.802   0.227  -5.601  0.00  0.00     0.063 H 
ATOM     30  H   LIG d   1       1.943   0.676  -3.156  0.00  0.00     0.062 H 
ATOM     31  H   LIG d   1       3.304   0.941  -1.151  0.00  0.00     0.062 H 
ATOM     32  H   LIG d   1       5.745   0.667  -1.244  0.00  0.00     0.062 H 
ATOM     33  H   LIG d   1       6.861   0.117  -3.337  0.00  0.00     0.064 H 
ATOM     34  H   LIG d   1       5.368  -2.438 -10.298  0.00  0.00     0.028 H 
ATOM     35  H   LIG d   1       5.699  -0.946 -11.241  0.00  0.00     0.028 H 
ATOM     36  H   LIG d   1       7.753  -2.175  -9.957  0.00  0.00     0.028 H 
ATOM     37  H   LIG d   1       7.625  -0.386  -9.881  0.00  0.00     0.028 H 
ATOM     38  H   LIG d   1       7.608  -0.895  -7.549  0.00  0.00     0.046 H 
ATOM     39  H   LIG d   1       6.778  -2.459  -7.805  0.00  0.00     0.046 H 
ENDROOT
BRANCH   1  40
ATOM     40  C   LIG d   1       3.150  -4.968  -8.931  0.00  0.00     0.012 C 
ATOM     41  H   LIG d   1       4.200  -5.261  -8.922  0.00  0.00     0.043 H 
ATOM     42  H   LIG d   1       2.745  -5.037  -7.921  0.00  0.00     0.043 H 
ATOM     43  H   LIG d   1       2.593  -5.631  -9.592  0.00  0.00     0.043 H 
ENDBRANCH   1  40
BRANCH  24  44
ATOM     44  C   LIG d   1       1.577  -1.922 -12.339  0.00  0.00     0.012 C 
ATOM     45  H   LIG d   1       0.714  -2.586 -12.385  0.00  0.00     0.043 H 
ATOM     46  H   LIG d   1       1.244  -0.887 -12.419  0.00  0.00     0.043 H 
ATOM     47  H   LIG d   1       2.255  -2.150 -13.160  0.00  0.00     0.043 H 
ENDBRANCH  24  44
TORSDOF 2
ENDMDL
MODEL 4
REMARK VINA RESULT:      -7.1      3.911      5.802
REMARK  2 active torsions:
REMARK  status: ('A' for Active; 'I' for Inactive)
REMARK    1  A    between atoms: C_1  and  N_2 
REMARK    2  A    between atoms: N_25  and  C_28 
ROOT
ATOM      1  N   LIG d   1       8.987   3.019  -7.447  0.00  0.00    -0.228 N 
ATOM      2  C   LIG d   1       8.673   2.157  -6.470  0.00  0.00     0.240 A 
ATOM      3  O   LIG d   1       7.828   1.314  -6.679  0.00  0.00    -0.274 OA
ATOM      4  C   LIG d   1       9.338   2.206  -5.123  0.00  0.00     0.146 A 
ATOM      5  C   LIG d   1       8.281   2.438  -4.040  0.00  0.00    -0.000 C 
ATOM      6  C   LIG d   1       7.383   1.244  -3.861  0.00  0.00    -0.005 A 
ATOM      7  C   LIG d   1       6.167   1.415  -3.265  0.00  0.00    -0.046 A 
ATOM      8  C   LIG d   1       5.339   0.289  -3.084  0.00  0.00     0.001 A 
ATOM      9  C   LIG d   1       4.076   0.403  -2.483  0.00  0.00    -0.053 A 
ATOM     10  C   LIG d   1       3.309  -0.709  -2.312  0.00  0.00    -0.061 A 
ATOM     11  C   LIG d   1       3.761  -1.960  -2.726  0.00  0.00    -0.060 A 
ATOM     12  C   LIG d   1       4.979  -2.105  -3.316  0.00  0.00    -0.036 A 
ATOM     13  C   LIG d   1       5.796  -0.981  -3.515  0.00  0.00     0.073 A 
ATOM     14  N   LIG d   1       6.992  -1.090  -4.104  0.00  0.00    -0.232 NA
ATOM     15  C   LIG d   1       7.762  -0.040  -4.289  0.00  0.00     0.126 A 
ATOM     16  N   LIG d   1       8.984  -0.171  -4.937  0.00  0.00    -0.310 N 
ATOM     17  C   LIG d   1      10.032   0.867  -4.849  0.00  0.00     0.048 C 
ATOM     18  H   LIG d   1      10.496   0.866  -3.863  0.00  0.00     0.051 H 
ATOM     19  C   LIG d   1      11.057   0.539  -5.948  0.00  0.00    -0.032 C 
ATOM     20  C   LIG d   1      10.947  -1.009  -6.043  0.00  0.00    -0.035 C 
ATOM     21  C   LIG d   1       9.427  -1.234  -5.840  0.00  0.00     0.014 C 
ATOM     22  C   LIG d   1      10.353   3.312  -5.074  0.00  0.00     0.240 A 
ATOM     23  O   LIG d   1      10.988   3.484  -4.055  0.00  0.00    -0.274 OA
ATOM     24  N   LIG d   1      10.580   4.114  -6.124  0.00  0.00    -0.228 N 
ATOM     25  C   LIG d   1       9.919   3.971  -7.282  0.00  0.00     0.317 A 
ATOM     26  O   LIG d   1      10.165   4.725  -8.202  0.00  0.00    -0.252 OA
ATOM     27  H   LIG d   1       8.781   2.649  -3.096  0.00  0.00     0.033 H 
ATOM     28  H   LIG d   1       7.673   3.298  -4.318  0.00  0.00     0.033 H 
ATOM     29  H   LIG d   1       5.846   2.392  -2.939  0.00  0.00     0.063 H 
ATOM     30  H   LIG d   1       3.715   1.368  -2.159  0.00  0.00     0.062 H 
ATOM     31  H   LIG d   1       2.337  -0.620  -1.848  0.00  0.00     0.062 H 
ATOM     32  H   LIG d   1       3.135  -2.828  -2.576  0.00  0.00     0.062 H 
ATOM     33  H   LIG d   1       5.315  -3.082  -3.632  0.00  0.00     0.064 H 
ATOM     34  H   LIG d   1      10.779   1.008  -6.892  0.00  0.00     0.028 H 
ATOM     35  H   LIG d   1      12.060   0.840  -5.646  0.00  0.00     0.028 H 
ATOM     36  H   LIG d   1      11.265  -1.363  -7.023  0.00  0.00     0.028 H 
ATOM     37  H   LIG d   1      11.520  -1.489  -5.251  0.00  0.00     0.028 H 
ATOM     38  H   LIG d   1       9.248  -2.210  -5.389  0.00  0.00     0.046 H 
ATOM     39  H   LIG d   1       8.906  -1.158  -6.794  0.00  0.00     0.046 H 
ENDROOT
BRANCH   1  40
ATOM     40  C   LIG d   1       8.298   2.915  -8.736  0.00  0.00     0.012 C 
ATOM     41  H   LIG d   1       7.505   2.170  -8.664  0.00  0.00     0.043 H 
ATOM     42  H   LIG d   1       7.866   3.881  -8.996  0.00  0.00     0.043 H 
ATOM     43  H   LIG d   1       9.009   2.615  -9.505  0.00  0.00     0.043 H 
ENDBRANCH   1  40
BRANCH  24  44
ATOM     44  C   LIG d   1      11.583   5.175  -6.004  0.00  0.00     0.012 C 
ATOM     45  H   LIG d   1      12.550   4.800  -6.342  0.00  0.00     0.043 H 
ATOM     46  H   LIG d   1      11.288   6.025  -6.619  0.00  0.00     0.043 H 
ATOM     47  H   LIG d   1      11.660   5.488  -4.964  0.00  0.00     0.043 H 
ENDBRANCH  24  44
TORSDOF 2
ENDMDL
MODEL 5
REMARK VINA RESULT:      -6.8      4.139      5.546
REMARK  2 active torsions:
REMARK  status: ('A' for Active; 'I' for Inactive)
REMARK    1  A    between atoms: C_1  and  N_2 
REMARK    2  A    between atoms: N_25  and  C_28 
ROOT
ATOM      1  N   LIG d   1       8.434  -3.791  -7.841  0.00  0.00    -0.228 N 
ATOM      2  C   LIG d   1       7.554  -3.680  -6.836  0.00  0.00     0.240 A 
ATOM      3  O   LIG d   1       6.623  -2.913  -6.951  0.00  0.00    -0.274 OA
ATOM      4  C   LIG d   1       7.689  -4.479  -5.571  0.00  0.00     0.146 A 
ATOM      5  C   LIG d   1       7.819  -3.529  -4.378  0.00  0.00    -0.000 C 
ATOM      6  C   LIG d   1       6.538  -2.790  -4.102  0.00  0.00    -0.005 A 
ATOM      7  C   LIG d   1       6.585  -1.635  -3.375  0.00  0.00    -0.046 A 
ATOM      8  C   LIG d   1       5.380  -0.958  -3.104  0.00  0.00     0.001 A 
ATOM      9  C   LIG d   1       5.365   0.237  -2.368  0.00  0.00    -0.053 A 
ATOM     10  C   LIG d   1       4.179   0.856  -2.114  0.00  0.00    -0.061 A 
ATOM     11  C   LIG d   1       2.979   0.321  -2.576  0.00  0.00    -0.060 A 
ATOM     12  C   LIG d   1       2.957  -0.833  -3.297  0.00  0.00    -0.036 A 
ATOM     13  C   LIG d   1       4.161  -1.499  -3.584  0.00  0.00     0.073 A 
ATOM     14  N   LIG d   1       4.173  -2.627  -4.301  0.00  0.00    -0.232 NA
ATOM     15  C   LIG d   1       5.297  -3.255  -4.570  0.00  0.00     0.126 A 
ATOM     16  N   LIG d   1       5.290  -4.405  -5.348  0.00  0.00    -0.310 N 
ATOM     17  C   LIG d   1       6.435  -5.339  -5.376  0.00  0.00     0.048 C 
ATOM     18  H   LIG d   1       6.495  -5.907  -4.447  0.00  0.00     0.051 H 
ATOM     19  C   LIG d   1       6.206  -6.266  -6.582  0.00  0.00    -0.032 C 
ATOM     20  C   LIG d   1       4.654  -6.313  -6.664  0.00  0.00    -0.035 C 
ATOM     21  C   LIG d   1       4.270  -4.858  -6.295  0.00  0.00     0.014 C 
ATOM     22  C   LIG d   1       8.898  -5.370  -5.633  0.00  0.00     0.240 A 
ATOM     23  O   LIG d   1       9.148  -6.090  -4.690  0.00  0.00    -0.274 OA
ATOM     24  N   LIG d   1       9.707  -5.393  -6.701  0.00  0.00    -0.228 N 
ATOM     25  C   LIG d   1       9.481  -4.627  -7.779  0.00  0.00     0.317 A 
ATOM     26  O   LIG d   1      10.247  -4.689  -8.721  0.00  0.00    -0.252 OA
ATOM     27  H   LIG d   1       8.093  -4.104  -3.495  0.00  0.00     0.033 H 
ATOM     28  H   LIG d   1       8.606  -2.806  -4.586  0.00  0.00     0.033 H 
ATOM     29  H   LIG d   1       7.526  -1.248  -3.015  0.00  0.00     0.063 H 
ATOM     30  H   LIG d   1       6.289   0.662  -2.005  0.00  0.00     0.062 H 
ATOM     31  H   LIG d   1       4.169   1.776  -1.545  0.00  0.00     0.062 H 
ATOM     32  H   LIG d   1       2.051   0.830  -2.358  0.00  0.00     0.062 H 
ATOM     33  H   LIG d   1       2.018  -1.235  -3.649  0.00  0.00     0.064 H 
ATOM     34  H   LIG d   1       6.632  -5.838  -7.489  0.00  0.00     0.028 H 
ATOM     35  H   LIG d   1       6.616  -7.259  -6.392  0.00  0.00     0.028 H 
ATOM     36  H   LIG d   1       4.325  -6.559  -7.675  0.00  0.00     0.028 H 
ATOM     37  H   LIG d   1       4.246  -7.018  -5.941  0.00  0.00     0.028 H 
ATOM     38  H   LIG d   1       3.286  -4.836  -5.828  0.00  0.00     0.046 H 
ATOM     39  H   LIG d   1       4.280  -4.230  -7.186  0.00  0.00     0.046 H 
ENDROOT
BRANCH   1  40
ATOM     40  C   LIG d   1       8.242  -2.979  -9.046  0.00  0.00     0.012 C 
ATOM     41  H   LIG d   1       8.179  -1.927  -8.769  0.00  0.00     0.043 H 
ATOM     42  H   LIG d   1       9.085  -3.127  -9.721  0.00  0.00     0.043 H 
ATOM     43  H   LIG d   1       7.320  -3.280  -9.543  0.00  0.00     0.043 H 
ENDBRANCH   1  40
BRANCH  24  44
ATOM     44  C   LIG d   1      10.870  -6.283  -6.692  0.00  0.00     0.012 C 
ATOM     45  H   LIG d   1      11.780  -5.691  -6.597  0.00  0.00     0.043 H 
ATOM     46  H   LIG d   1      10.794  -6.970  -5.850  0.00  0.00     0.043 H 
ATOM     47  H   LIG d   1      10.902  -6.850  -7.622  0.00  0.00     0.043 H 
ENDBRANCH  24  44
TORSDOF 2
ENDMDL
MODEL 6
REMARK VINA RESULT:      -6.8      5.243      6.708
REMARK  2 active torsions:
REMARK  status: ('A' for Active; 'I' for Inactive)
REMARK    1  A    between atoms: C_1  and  N_2 
REMARK    2  A    between atoms: N_25  and  C_28 
ROOT
ATOM      1  N   LIG d   1       9.434  -5.731  -3.520  0.00  0.00    -0.228 N 
ATOM      2  C   LIG d   1       8.785  -4.618  -3.889  0.00  0.00     0.240 A 
ATOM      3  O   LIG d   1       8.795  -3.658  -3.149  0.00  0.00    -0.274 OA
ATOM      4  C   LIG d   1       8.046  -4.524  -5.194  0.00  0.00     0.146 A 
ATOM      5  C   LIG d   1       6.569  -4.227  -4.923  0.00  0.00    -0.000 C 
ATOM      6  C   LIG d   1       6.361  -2.836  -4.390  0.00  0.00    -0.005 A 
ATOM      7  C   LIG d   1       5.207  -2.551  -3.717  0.00  0.00    -0.046 A 
ATOM      8  C   LIG d   1       5.011  -1.242  -3.237  0.00  0.00     0.001 A 
ATOM      9  C   LIG d   1       3.848  -0.891  -2.534  0.00  0.00    -0.053 A 
ATOM     10  C   LIG d   1       3.687   0.388  -2.095  0.00  0.00    -0.061 A 
ATOM     11  C   LIG d   1       4.661   1.355  -2.335  0.00  0.00    -0.060 A 
ATOM     12  C   LIG d   1       5.803   1.047  -3.009  0.00  0.00    -0.036 A 
ATOM     13  C   LIG d   1       6.008  -0.263  -3.472  0.00  0.00     0.073 A 
ATOM     14  N   LIG d   1       7.125  -0.599  -4.126  0.00  0.00    -0.232 NA
ATOM     15  C   LIG d   1       7.320  -1.823  -4.564  0.00  0.00     0.126 A 
ATOM     16  N   LIG d   1       8.504  -2.158  -5.208  0.00  0.00    -0.310 N 
ATOM     17  C   LIG d   1       8.629  -3.380  -6.030  0.00  0.00     0.048 C 
ATOM     18  H   LIG d   1       8.089  -3.272  -6.970  0.00  0.00     0.051 H 
ATOM     19  C   LIG d   1      10.135  -3.583  -6.272  0.00  0.00    -0.032 C 
ATOM     20  C   LIG d   1      10.666  -2.122  -6.258  0.00  0.00    -0.035 C 
ATOM     21  C   LIG d   1       9.798  -1.478  -5.147  0.00  0.00     0.014 C 
ATOM     22  C   LIG d   1       8.163  -5.811  -5.962  0.00  0.00     0.240 A 
ATOM     23  O   LIG d   1       7.626  -5.901  -7.045  0.00  0.00    -0.274 OA
ATOM     24  N   LIG d   1       8.844  -6.862  -5.484  0.00  0.00    -0.228 N 
ATOM     25  C   LIG d   1       9.468  -6.824  -4.297  0.00  0.00     0.317 A 
ATOM     26  O   LIG d   1      10.073  -7.805  -3.914  0.00  0.00    -0.252 OA
ATOM     27  H   LIG d   1       6.009  -4.337  -5.852  0.00  0.00     0.033 H 
ATOM     28  H   LIG d   1       6.191  -4.945  -4.197  0.00  0.00     0.033 H 
ATOM     29  H   LIG d   1       4.460  -3.314  -3.558  0.00  0.00     0.063 H 
ATOM     30  H   LIG d   1       3.086  -1.631  -2.341  0.00  0.00     0.062 H 
ATOM     31  H   LIG d   1       2.790   0.657  -1.555  0.00  0.00     0.062 H 
ATOM     32  H   LIG d   1       4.508   2.363  -1.980  0.00  0.00     0.062 H 
ATOM     33  H   LIG d   1       6.549   1.808  -3.186  0.00  0.00     0.064 H 
ATOM     34  H   LIG d   1      10.583  -4.169  -5.470  0.00  0.00     0.028 H 
ATOM     35  H   LIG d   1      10.313  -4.052  -7.241  0.00  0.00     0.028 H 
ATOM     36  H   LIG d   1      11.723  -2.095  -5.992  0.00  0.00     0.028 H 
ATOM     37  H   LIG d   1      10.494  -1.635  -7.217  0.00  0.00     0.028 H 
ATOM     38  H   LIG d   1       9.673  -0.413  -5.338  0.00  0.00     0.046 H 
ATOM     39  H   LIG d   1      10.260  -1.635  -4.172  0.00  0.00     0.046 H 
ENDROOT
BRANCH   1  40
ATOM     40  C   LIG d   1      10.133  -5.752  -2.232  0.00  0.00     0.012 C 
ATOM     41  H   LIG d   1       9.455  -6.109  -1.457  0.00  0.00     0.043 H 
ATOM     42  H   LIG d   1      10.994  -6.418  -2.297  0.00  0.00     0.043 H 
ATOM     43  H   LIG d   1      10.470  -4.745  -1.986  0.00  0.00     0.043 H 
ENDBRANCH   1  40
BRANCH  24  44
ATOM     44  C   LIG d   1       8.914  -8.087  -6.286  0.00  0.00     0.012 C 
ATOM     45  H   LIG d   1       8.568  -7.878  -7.298  0.00  0.00     0.043 H 
ATOM     46  H   LIG d   1       9.945  -8.439  -6.320  0.00  0.00     0.043 H 
ATOM     47  H   LIG d   1       8.283  -8.852  -5.837  0.00  0.00     0.043 H 
ENDBRANCH  24  44
TORSDOF 2
ENDMDL
MODEL 7
REMARK VINA RESULT:      -6.5      3.492      4.586
REMARK  2 active torsions:
REMARK  status: ('A' for Active; 'I' for Inactive)
REMARK    1  A    between atoms: C_1  and  N_2 
REMARK    2  A    between atoms: N_25  and  C_28 
ROOT
ATOM      1  N   LIG d   1       7.475  -4.743  -7.776  0.00  0.00    -0.228 N 
ATOM      2  C   LIG d   1       6.503  -3.991  -7.241  0.00  0.00     0.240 A 
ATOM      3  O   LIG d   1       6.753  -2.851  -6.915  0.00  0.00    -0.274 OA
ATOM      4  C   LIG d   1       5.111  -4.521  -7.035  0.00  0.00     0.146 A 
ATOM      5  C   LIG d   1       4.756  -4.456  -5.547  0.00  0.00    -0.000 C 
ATOM      6  C   LIG d   1       4.585  -3.040  -5.068  0.00  0.00    -0.005 A 
ATOM      7  C   LIG d   1       4.682  -2.778  -3.732  0.00  0.00    -0.046 A 
ATOM      8  C   LIG d   1       4.503  -1.454  -3.288  0.00  0.00     0.001 A 
ATOM      9  C   LIG d   1       4.596  -1.122  -1.927  0.00  0.00    -0.053 A 
ATOM     10  C   LIG d   1       4.404   0.167  -1.534  0.00  0.00    -0.061 A 
ATOM     11  C   LIG d   1       4.115   1.164  -2.463  0.00  0.00    -0.060 A 
ATOM     12  C   LIG d   1       4.022   0.878  -3.791  0.00  0.00    -0.036 A 
ATOM     13  C   LIG d   1       4.219  -0.440  -4.236  0.00  0.00     0.073 A 
ATOM     14  N   LIG d   1       4.148  -0.749  -5.535  0.00  0.00    -0.232 NA
ATOM     15  C   LIG d   1       4.329  -1.982  -5.957  0.00  0.00     0.126 A 
ATOM     16  N   LIG d   1       4.287  -2.273  -7.314  0.00  0.00    -0.310 N 
ATOM     17  C   LIG d   1       4.116  -3.654  -7.813  0.00  0.00     0.048 C 
ATOM     18  H   LIG d   1       3.094  -3.999  -7.655  0.00  0.00     0.051 H 
ATOM     19  C   LIG d   1       4.466  -3.617  -9.311  0.00  0.00    -0.032 C 
ATOM     20  C   LIG d   1       4.055  -2.170  -9.704  0.00  0.00    -0.035 C 
ATOM     21  C   LIG d   1       4.473  -1.366  -8.447  0.00  0.00     0.014 C 
ATOM     22  C   LIG d   1       5.010  -5.943  -7.510  0.00  0.00     0.240 A 
ATOM     23  O   LIG d   1       3.947  -6.519  -7.421  0.00  0.00    -0.274 OA
ATOM     24  N   LIG d   1       6.061  -6.593  -8.031  0.00  0.00    -0.228 N 
ATOM     25  C   LIG d   1       7.261  -6.009  -8.165  0.00  0.00     0.317 A 
ATOM     26  O   LIG d   1       8.179  -6.644  -8.645  0.00  0.00    -0.252 OA
ATOM     27  H   LIG d   1       3.827  -5.000  -5.381  0.00  0.00     0.033 H 
ATOM     28  H   LIG d   1       5.551  -4.930  -4.973  0.00  0.00     0.033 H 
ATOM     29  H   LIG d   1       4.891  -3.570  -3.029  0.00  0.00     0.063 H 
ATOM     30  H   LIG d   1       4.820  -1.886  -1.197  0.00  0.00     0.062 H 
ATOM     31  H   LIG d   1       4.475   0.421  -0.486  0.00  0.00     0.062 H 
ATOM     32  H   LIG d   1       3.963   2.178  -2.126  0.00  0.00     0.062 H 
ATOM     33  H   LIG d   1       3.798   1.662  -4.500  0.00  0.00     0.064 H 
ATOM     34  H   LIG d   1       5.533  -3.775  -9.465  0.00  0.00     0.028 H 
ATOM     35  H   LIG d   1       3.881  -4.351  -9.865  0.00  0.00     0.028 H 
ATOM     36  H   LIG d   1       4.606  -1.834 -10.583  0.00  0.00     0.028 H 
ATOM     37  H   LIG d   1       2.981  -2.101  -9.870  0.00  0.00     0.028 H 
ATOM     38  H   LIG d   1       3.838  -0.487  -8.334  0.00  0.00     0.046 H 
ATOM     39  H   LIG d   1       5.519  -1.069  -8.523  0.00  0.00     0.046 H 
ENDROOT
BRANCH   1  40
ATOM     40  C   LIG d   1       8.809  -4.162  -7.947  0.00  0.00     0.012 C 
ATOM     41  H   LIG d   1       8.888  -3.718  -8.939  0.00  0.00     0.043 H 
ATOM     42  H   LIG d   1       8.970  -3.393  -7.191  0.00  0.00     0.043 H 
ATOM     43  H   LIG d   1       9.562  -4.943  -7.837  0.00  0.00     0.043 H 
ENDBRANCH   1  40
BRANCH  24  44
ATOM     44  C   LIG d   1       5.891  -7.979  -8.471  0.00  0.00     0.012 C 
ATOM     45  H   LIG d   1       6.841  -8.361  -8.845  0.00  0.00     0.043 H 
ATOM     46  H   LIG d   1       5.560  -8.589  -7.631  0.00  0.00     0.043 H 
ATOM     47  H   LIG d   1       5.146  -8.021  -9.265  0.00  0.00     0.043 H 
ENDBRANCH  24  44
TORSDOF 2
ENDMDL
MODEL 8
REMARK VINA RESULT:      -6.4      3.892      4.899
REMARK  2 active torsions:
REMARK  status: ('A' for Active; 'I' for Inactive)
REMARK    1  A    between atoms: C_1  and  N_2 
REMARK    2  A    between atoms: N_25  and  C_28 
ROOT
ATOM      1  N   LIG d   1      10.962   1.062  -4.597  0.00  0.00    -0.228 N 
ATOM      2  C   LIG d   1       9.754   0.582  -4.923  0.00  0.00     0.240 A 
ATOM      3  O   LIG d   1       8.766   1.205  -4.599  0.00  0.00    -0.274 OA
ATOM      4  C   LIG d   1       9.588  -0.707  -5.678  0.00  0.00     0.146 A 
ATOM      5  C   LIG d   1       8.767  -1.688  -4.838  0.00  0.00    -0.000 C 
ATOM      6  C   LIG d   1       7.331  -1.258  -4.709  0.00  0.00    -0.005 A 
ATOM      7  C   LIG d   1       6.579  -1.763  -3.687  0.00  0.00    -0.046 A 
ATOM      8  C   LIG d   1       5.230  -1.370  -3.583  0.00  0.00     0.001 A 
ATOM      9  C   LIG d   1       4.410  -1.850  -2.551  0.00  0.00    -0.053 A 
ATOM     10  C   LIG d   1       3.107  -1.459  -2.489  0.00  0.00    -0.061 A 
ATOM     11  C   LIG d   1       2.575  -0.588  -3.438  0.00  0.00    -0.060 A 
ATOM     12  C   LIG d   1       3.345  -0.100  -4.449  0.00  0.00    -0.036 A 
ATOM     13  C   LIG d   1       4.695  -0.476  -4.543  0.00  0.00     0.073 A 
ATOM     14  N   LIG d   1       5.479  -0.003  -5.517  0.00  0.00    -0.232 NA
ATOM     15  C   LIG d   1       6.743  -0.354  -5.610  0.00  0.00     0.126 A 
ATOM     16  N   LIG d   1       7.548   0.179  -6.608  0.00  0.00    -0.310 N 
ATOM     17  C   LIG d   1       8.837  -0.437  -6.987  0.00  0.00     0.048 C 
ATOM     18  H   LIG d   1       8.677  -1.363  -7.540  0.00  0.00     0.051 H 
ATOM     19  C   LIG d   1       9.577   0.604  -7.845  0.00  0.00    -0.032 C 
ATOM     20  C   LIG d   1       8.399   1.364  -8.519  0.00  0.00    -0.035 C 
ATOM     21  C   LIG d   1       7.354   1.409  -7.376  0.00  0.00     0.014 C 
ATOM     22  C   LIG d   1      10.927  -1.315  -5.988  0.00  0.00     0.240 A 
ATOM     23  O   LIG d   1      10.971  -2.359  -6.603  0.00  0.00    -0.274 OA
ATOM     24  N   LIG d   1      12.074  -0.736  -5.607  0.00  0.00    -0.228 N 
ATOM     25  C   LIG d   1      12.094   0.424  -4.933  0.00  0.00     0.317 A 
ATOM     26  O   LIG d   1      13.162   0.905  -4.613  0.00  0.00    -0.252 OA
ATOM     27  H   LIG d   1       8.801  -2.671  -5.307  0.00  0.00     0.033 H 
ATOM     28  H   LIG d   1       9.206  -1.757  -3.844  0.00  0.00     0.033 H 
ATOM     29  H   LIG d   1       7.009  -2.449  -2.973  0.00  0.00     0.063 H 
ATOM     30  H   LIG d   1       4.810  -2.526  -1.809  0.00  0.00     0.062 H 
ATOM     31  H   LIG d   1       2.475  -1.831  -1.695  0.00  0.00     0.062 H 
ATOM     32  H   LIG d   1       1.538  -0.296  -3.370  0.00  0.00     0.062 H 
ATOM     33  H   LIG d   1       2.919   0.575  -5.177  0.00  0.00     0.064 H 
ATOM     34  H   LIG d   1      10.168   1.274  -7.221  0.00  0.00     0.028 H 
ATOM     35  H   LIG d   1      10.203   0.116  -8.593  0.00  0.00     0.028 H 
ATOM     36  H   LIG d   1       8.702   2.370  -8.810  0.00  0.00     0.028 H 
ATOM     37  H   LIG d   1       8.017   0.809  -9.374  0.00  0.00     0.028 H 
ATOM     38  H   LIG d   1       6.346   1.439  -7.790  0.00  0.00     0.046 H 
ATOM     39  H   LIG d   1       7.528   2.279  -6.743  0.00  0.00     0.046 H 
ENDROOT
BRANCH   1  40
ATOM     40  C   LIG d   1      11.049   2.324  -3.858  0.00  0.00     0.012 C 
ATOM     41  H   LIG d   1      10.655   3.133  -4.474  0.00  0.00     0.043 H 
ATOM     42  H   LIG d   1      10.467   2.249  -2.940  0.00  0.00     0.043 H 
ATOM     43  H   LIG d   1      12.091   2.529  -3.612  0.00  0.00     0.043 H 
ENDBRANCH   1  40
BRANCH  24  44
ATOM     44  C   LIG d   1      13.343  -1.386  -5.941  0.00  0.00     0.012 C 
ATOM     45  H   LIG d   1      14.148  -0.651  -5.908  0.00  0.00     0.043 H 
ATOM     46  H   LIG d   1      13.545  -2.179  -5.221  0.00  0.00     0.043 H 
ATOM     47  H   LIG d   1      13.282  -1.812  -6.942  0.00  0.00     0.043 H 
ENDBRANCH  24  44
TORSDOF 2
ENDMDL
MODEL 9
REMARK VINA RESULT:      -6.3      3.717      6.686
REMARK  2 active torsions:
REMARK  status: ('A' for Active; 'I' for Inactive)
REMARK    1  A    between atoms: C_1  and  N_2 
REMARK    2  A    between atoms: N_25  and  C_28 
ROOT
ATOM      1  N   LIG d   1       3.553  -0.204  -5.855  0.00  0.00    -0.228 N 
ATOM      2  C   LIG d   1       4.400  -1.243  -5.830  0.00  0.00     0.240 A 
ATOM      3  O   LIG d   1       4.584  -1.877  -6.846  0.00  0.00    -0.274 OA
ATOM      4  C   LIG d   1       5.129  -1.645  -4.578  0.00  0.00     0.146 A 
ATOM      5  C   LIG d   1       4.758  -3.083  -4.211  0.00  0.00    -0.000 C 
ATOM      6  C   LIG d   1       5.321  -4.079  -5.189  0.00  0.00    -0.005 A 
ATOM      7  C   LIG d   1       4.763  -5.323  -5.261  0.00  0.00    -0.046 A 
ATOM      8  C   LIG d   1       5.307  -6.256  -6.164  0.00  0.00     0.001 A 
ATOM      9  C   LIG d   1       4.773  -7.548  -6.288  0.00  0.00    -0.053 A 
ATOM     10  C   LIG d   1       5.333  -8.428  -7.163  0.00  0.00    -0.061 A 
ATOM     11  C   LIG d   1       6.431  -8.064  -7.939  0.00  0.00    -0.060 A 
ATOM     12  C   LIG d   1       6.971  -6.818  -7.848  0.00  0.00    -0.036 A 
ATOM     13  C   LIG d   1       6.417  -5.880  -6.961  0.00  0.00     0.073 A 
ATOM     14  N   LIG d   1       6.917  -4.644  -6.859  0.00  0.00    -0.232 NA
ATOM     15  C   LIG d   1       6.404  -3.764  -6.027  0.00  0.00     0.126 A 
ATOM     16  N   LIG d   1       6.916  -2.475  -5.965  0.00  0.00    -0.310 N 
ATOM     17  C   LIG d   1       6.640  -1.577  -4.825  0.00  0.00     0.048 C 
ATOM     18  H   LIG d   1       7.191  -1.893  -3.939  0.00  0.00     0.051 H 
ATOM     19  C   LIG d   1       7.066  -0.168  -5.272  0.00  0.00    -0.032 C 
ATOM     20  C   LIG d   1       8.221  -0.479  -6.265  0.00  0.00    -0.035 C 
ATOM     21  C   LIG d   1       7.702  -1.757  -6.970  0.00  0.00     0.014 C 
ATOM     22  C   LIG d   1       4.769  -0.731  -3.440  0.00  0.00     0.240 A 
ATOM     23  O   LIG d   1       5.278  -0.914  -2.355  0.00  0.00    -0.274 OA
ATOM     24  N   LIG d   1       3.902   0.281  -3.590  0.00  0.00    -0.228 N 
ATOM     25  C   LIG d   1       3.312   0.542  -4.766  0.00  0.00     0.317 A 
ATOM     26  O   LIG d   1       2.536   1.473  -4.846  0.00  0.00    -0.252 OA
ATOM     27  H   LIG d   1       5.144  -3.307  -3.217  0.00  0.00     0.033 H 
ATOM     28  H   LIG d   1       3.673  -3.177  -4.198  0.00  0.00     0.033 H 
ATOM     29  H   LIG d   1       3.922  -5.586  -4.637  0.00  0.00     0.063 H 
ATOM     30  H   LIG d   1       3.921  -7.842  -5.692  0.00  0.00     0.062 H 
ATOM     31  H   LIG d   1       4.921  -9.423  -7.256  0.00  0.00     0.062 H 
ATOM     32  H   LIG d   1       6.860  -8.781  -8.623  0.00  0.00     0.062 H 
ATOM     33  H   LIG d   1       7.822  -6.550  -8.458  0.00  0.00     0.064 H 
ATOM     34  H   LIG d   1       6.246   0.345  -5.776  0.00  0.00     0.028 H 
ATOM     35  H   LIG d   1       7.427   0.416  -4.425  0.00  0.00     0.028 H 
ATOM     36  H   LIG d   1       8.350   0.335  -6.979  0.00  0.00     0.028 H 
ATOM     37  H   LIG d   1       9.150  -0.679  -5.732  0.00  0.00     0.028 H 
ATOM     38  H   LIG d   1       8.539  -2.370  -7.302  0.00  0.00     0.046 H 
ATOM     39  H   LIG d   1       7.072  -1.488  -7.818  0.00  0.00     0.046 H 
ENDROOT
BRANCH   1  40
ATOM     40  C   LIG d   1       2.875   0.130  -7.110  0.00  0.00     0.012 C 
ATOM     41  H   LIG d   1       2.528  -0.785  -7.590  0.00  0.00     0.043 H 
ATOM     42  H   LIG d   1       2.024   0.777  -6.902  0.00  0.00     0.043 H 
ATOM     43  H   LIG d   1       3.571   0.645  -7.772  0.00  0.00     0.043 H 
ENDBRANCH   1  40
BRANCH  24  44
ATOM     44  C   LIG d   1       3.596   1.130  -2.436  0.00  0.00     0.012 C 
ATOM     45  H   LIG d   1       3.711   0.552  -1.519  0.00  0.00     0.043 H 
ATOM     46  H   LIG d   1       4.279   1.979  -2.419  0.00  0.00     0.043 H 
ATOM     47  H   LIG d   1       2.571   1.490  -2.511  0.00  0.00     0.043 H 
ENDBRANCH  24  44
TORSDOF 2
ENDMDL
MODEL 10
REMARK VINA RESULT:      -6.3      8.235     11.500
REMARK  2 active torsions:
REMARK  status: ('A' for Active; 'I' for Inactive)
REMARK    1  A    between atoms: C_1  and  N_2 
REMARK    2  A    between atoms: N_25  and  C_28 
ROOT
ATOM      1  N   LIG d   1      13.132   6.947  -1.953  0.00  0.00    -0.228 N 
ATOM      2  C   LIG d   1      12.173   6.635  -2.835  0.00  0.00     0.240 A 
ATOM      3  O   LIG d   1      12.490   6.303  -3.956  0.00  0.00    -0.274 OA
ATOM      4  C   LIG d   1      10.714   6.686  -2.475  0.00  0.00     0.146 A 
ATOM      5  C   LIG d   1       9.997   7.679  -3.393  0.00  0.00    -0.000 C 
ATOM      6  C   LIG d   1       9.913   7.179  -4.810  0.00  0.00    -0.005 A 
ATOM      7  C   LIG d   1       9.694   8.077  -5.815  0.00  0.00    -0.046 A 
ATOM      8  C   LIG d   1       9.598   7.601  -7.137  0.00  0.00     0.001 A 
ATOM      9  C   LIG d   1       9.380   8.475  -8.212  0.00  0.00    -0.053 A 
ATOM     10  C   LIG d   1       9.279   7.977  -9.476  0.00  0.00    -0.061 A 
ATOM     11  C   LIG d   1       9.390   6.610  -9.717  0.00  0.00    -0.060 A 
ATOM     12  C   LIG d   1       9.606   5.734  -8.697  0.00  0.00    -0.036 A 
ATOM     13  C   LIG d   1       9.721   6.210  -7.381  0.00  0.00     0.073 A 
ATOM     14  N   LIG d   1       9.947   5.376  -6.360  0.00  0.00    -0.232 NA
ATOM     15  C   LIG d   1      10.052   5.817  -5.126  0.00  0.00     0.126 A 
ATOM     16  N   LIG d   1      10.324   4.937  -4.086  0.00  0.00    -0.310 N 
ATOM     17  C   LIG d   1      10.092   5.300  -2.673  0.00  0.00     0.048 C 
ATOM     18  H   LIG d   1       9.026   5.318  -2.447  0.00  0.00     0.051 H 
ATOM     19  C   LIG d   1      10.823   4.239  -1.830  0.00  0.00    -0.032 C 
ATOM     20  C   LIG d   1      10.742   2.986  -2.747  0.00  0.00    -0.035 C 
ATOM     21  C   LIG d   1      10.928   3.606  -4.154  0.00  0.00     0.014 C 
ATOM     22  C   LIG d   1      10.537   7.112  -1.045  0.00  0.00     0.240 A 
ATOM     23  O   LIG d   1       9.417   7.197  -0.590  0.00  0.00    -0.274 OA
ATOM     24  N   LIG d   1      11.582   7.399  -0.255  0.00  0.00    -0.228 N 
ATOM     25  C   LIG d   1      12.847   7.315  -0.694  0.00  0.00     0.317 A 
ATOM     26  O   LIG d   1      13.757   7.585   0.065  0.00  0.00    -0.252 OA
ATOM     27  H   LIG d   1       8.988   7.845  -3.016  0.00  0.00     0.033 H 
ATOM     28  H   LIG d   1      10.537   8.624  -3.383  0.00  0.00     0.033 H 
ATOM     29  H   LIG d   1       9.596   9.131  -5.601  0.00  0.00     0.063 H 
ATOM     30  H   LIG d   1       9.293   9.538  -8.039  0.00  0.00     0.062 H 
ATOM     31  H   LIG d   1       9.110   8.652 -10.303  0.00  0.00     0.062 H 
ATOM     32  H   LIG d   1       9.303   6.239 -10.727  0.00  0.00     0.062 H 
ATOM     33  H   LIG d   1       9.691   4.676  -8.900  0.00  0.00     0.064 H 
ATOM     34  H   LIG d   1      11.859   4.528  -1.655  0.00  0.00     0.028 H 
ATOM     35  H   LIG d   1      10.303   4.067  -0.888  0.00  0.00     0.028 H 
ATOM     36  H   LIG d   1      11.546   2.285  -2.519  0.00  0.00     0.028 H 
ATOM     37  H   LIG d   1       9.769   2.503  -2.660  0.00  0.00     0.028 H 
ATOM     38  H   LIG d   1      10.420   2.999  -4.903  0.00  0.00     0.046 H 
ATOM     39  H   LIG d   1      11.989   3.687  -4.391  0.00  0.00     0.046 H 
ENDROOT
BRANCH   1  40
ATOM     40  C   LIG d   1      14.534   6.877  -2.373  0.00  0.00     0.012 C 
ATOM     41  H   LIG d   1      14.955   7.882  -2.400  0.00  0.00     0.043 H 
ATOM     42  H   LIG d   1      15.095   6.267  -1.665  0.00  0.00     0.043 H 
ATOM     43  H   LIG d   1      14.594   6.430  -3.365  0.00  0.00     0.043 H 
ENDBRANCH   1  40
BRANCH  24  44
ATOM     44  C   LIG d   1      11.335   7.810   1.129  0.00  0.00     0.012 C 
ATOM     45  H   LIG d   1      11.683   8.833   1.271  0.00  0.00     0.043 H 
ATOM     46  H   LIG d   1      10.267   7.758   1.337  0.00  0.00     0.043 H 
ATOM     47  H   LIG d   1      11.871   7.147   1.807  0.00  0.00     0.043 H 
ENDBRANCH  24  44
TORSDOF 2
ENDMDL
