MODEL 1
REMARK VINA RESULT:      -6.0      0.000      0.000
REMARK  1 active torsions:
REMARK  status: ('A' for Active; 'I' for Inactive)
REMARK    1  A    between atoms: C_7  and  O_13 
ROOT
ATOM      1  C   LIG d   1       7.651  -0.272  -4.212  0.00  0.00    -0.061 A 
ATOM      2  C   LIG d   1       7.275   0.992  -3.791  0.00  0.00    -0.061 A 
ATOM      3  C   LIG d   1       6.025   1.194  -3.246  0.00  0.00    -0.051 A 
ATOM      4  C   LIG d   1       5.141   0.119  -3.122  0.00  0.00     0.023 A 
ATOM      5  C   LIG d   1       5.520  -1.155  -3.550  0.00  0.00    -0.009 A 
ATOM      6  C   LIG d   1       6.779  -1.338  -4.092  0.00  0.00    -0.056 A 
ATOM      7  C   LIG d   1       4.592  -2.333  -3.438  0.00  0.00     0.081 C 
ATOM      8  H   LIG d   1       5.171  -3.220  -3.182  0.00  0.00     0.064 H 
ATOM      9  C   LIG d   1       3.532  -2.102  -2.365  0.00  0.00    -0.016 C 
ATOM     10  C   LIG d   1       2.795  -0.787  -2.651  0.00  0.00     0.013 C 
ATOM     11  C   LIG d   1       3.806   0.334  -2.530  0.00  0.00     0.164 C 
ATOM     12  O   LIG d   1       3.529   1.371  -1.966  0.00  0.00    -0.292 OA
ATOM     13  H   LIG d   1       8.632  -0.425  -4.636  0.00  0.00     0.062 H 
ATOM     14  H   LIG d   1       7.962   1.821  -3.889  0.00  0.00     0.062 H 
ATOM     15  H   LIG d   1       5.729   2.180  -2.918  0.00  0.00     0.062 H 
ATOM     16  H   LIG d   1       7.083  -2.319  -4.424  0.00  0.00     0.062 H 
ATOM     17  H   LIG d   1       2.819  -2.926  -2.373  0.00  0.00     0.030 H 
ATOM     18  H   LIG d   1       4.010  -2.044  -1.387  0.00  0.00     0.030 H 
ATOM     19  H   LIG d   1       2.054  -0.670  -1.989  0.00  0.00     0.035 H 
ATOM     20  H   LIG d   1       2.381  -0.806  -3.659  0.00  0.00     0.035 H 
ENDROOT
BRANCH   7  21
ATOM     21  O   LIG d   1       3.948  -2.543  -4.696  0.00  0.00    -0.387 OA
ATOM     22  H   LIG d   1       3.552  -1.745  -5.073  0.00  0.00     0.210 HD
ENDBRANCH   7  21
TORSDOF 1
ENDMDL
MODEL 2
REMARK VINA RESULT:      -5.8      1.763      3.819
REMARK  1 active torsions:
REMARK  status: ('A' for Active; 'I' for Inactive)
REMARK    1  A    between atoms: C_7  and  O_13 
ROOT
ATOM      1  C   LIG d   1       3.816   0.926  -2.334  0.00  0.00    -0.061 A 
ATOM      2  C   LIG d   1       2.863  -0.023  -2.660  0.00  0.00    -0.061 A 
ATOM      3  C   LIG d   1       3.248  -1.223  -3.220  0.00  0.00    -0.051 A 
ATOM      4  C   LIG d   1       4.602  -1.475  -3.457  0.00  0.00     0.023 A 
ATOM      5  C   LIG d   1       5.562  -0.514  -3.132  0.00  0.00    -0.009 A 
ATOM      6  C   LIG d   1       5.156   0.682  -2.569  0.00  0.00    -0.056 A 
ATOM      7  C   LIG d   1       7.027  -0.748  -3.379  0.00  0.00     0.081 C 
ATOM      8  H   LIG d   1       7.601  -0.308  -2.564  0.00  0.00     0.064 H 
ATOM      9  C   LIG d   1       7.342  -2.239  -3.463  0.00  0.00    -0.016 C 
ATOM     10  C   LIG d   1       6.447  -2.891  -4.524  0.00  0.00     0.013 C 
ATOM     11  C   LIG d   1       5.015  -2.763  -4.047  0.00  0.00     0.164 C 
ATOM     12  O   LIG d   1       4.234  -3.686  -4.148  0.00  0.00    -0.292 OA
ATOM     13  H   LIG d   1       3.510   1.863  -1.895  0.00  0.00     0.062 H 
ATOM     14  H   LIG d   1       1.817   0.175  -2.475  0.00  0.00     0.062 H 
ATOM     15  H   LIG d   1       2.506  -1.965  -3.475  0.00  0.00     0.062 H 
ATOM     16  H   LIG d   1       5.891   1.430  -2.311  0.00  0.00     0.062 H 
ATOM     17  H   LIG d   1       8.387  -2.376  -3.738  0.00  0.00     0.030 H 
ATOM     18  H   LIG d   1       7.156  -2.706  -2.495  0.00  0.00     0.030 H 
ATOM     19  H   LIG d   1       6.701  -3.853  -4.629  0.00  0.00     0.035 H 
ATOM     20  H   LIG d   1       6.567  -2.378  -5.478  0.00  0.00     0.035 H 
ENDROOT
BRANCH   7  21
ATOM     21  O   LIG d   1       7.400  -0.121  -4.607  0.00  0.00    -0.387 OA
ATOM     22  H   LIG d   1       8.248   0.342  -4.571  0.00  0.00     0.210 HD
ENDBRANCH   7  21
TORSDOF 1
ENDMDL
MODEL 3
REMARK VINA RESULT:      -5.8      2.090      3.679
REMARK  1 active torsions:
REMARK  status: ('A' for Active; 'I' for Inactive)
REMARK    1  A    between atoms: C_7  and  O_13 
ROOT
ATOM      1  C   LIG d   1       4.239  -0.750  -1.824  0.00  0.00    -0.061 A 
ATOM      2  C   LIG d   1       4.394   0.625  -1.889  0.00  0.00    -0.061 A 
ATOM      3  C   LIG d   1       5.401   1.170  -2.656  0.00  0.00    -0.051 A 
ATOM      4  C   LIG d   1       6.265   0.331  -3.365  0.00  0.00     0.023 A 
ATOM      5  C   LIG d   1       6.110  -1.055  -3.297  0.00  0.00    -0.009 A 
ATOM      6  C   LIG d   1       5.092  -1.583  -2.524  0.00  0.00    -0.056 A 
ATOM      7  C   LIG d   1       7.024  -1.989  -4.042  0.00  0.00     0.081 C 
ATOM      8  H   LIG d   1       6.446  -2.837  -4.409  0.00  0.00     0.064 H 
ATOM      9  C   LIG d   1       7.686  -1.287  -5.224  0.00  0.00    -0.016 C 
ATOM     10  C   LIG d   1       8.399  -0.021  -4.733  0.00  0.00     0.013 C 
ATOM     11  C   LIG d   1       7.337   0.916  -4.195  0.00  0.00     0.164 C 
ATOM     12  O   LIG d   1       7.366   2.103  -4.436  0.00  0.00    -0.292 OA
ATOM     13  H   LIG d   1       3.448  -1.172  -1.224  0.00  0.00     0.062 H 
ATOM     14  H   LIG d   1       3.724   1.270  -1.339  0.00  0.00     0.062 H 
ATOM     15  H   LIG d   1       5.524   2.242  -2.707  0.00  0.00     0.062 H 
ATOM     16  H   LIG d   1       4.962  -2.654  -2.466  0.00  0.00     0.062 H 
ATOM     17  H   LIG d   1       8.413  -1.956  -5.684  0.00  0.00     0.030 H 
ATOM     18  H   LIG d   1       6.927  -1.014  -5.958  0.00  0.00     0.030 H 
ATOM     19  H   LIG d   1       8.891   0.401  -5.494  0.00  0.00     0.035 H 
ATOM     20  H   LIG d   1       9.104  -0.275  -3.941  0.00  0.00     0.035 H 
ENDROOT
BRANCH   7  21
ATOM     21  O   LIG d   1       8.036  -2.462  -3.151  0.00  0.00    -0.387 OA
ATOM     22  H   LIG d   1       8.332  -3.364  -3.336  0.00  0.00     0.210 HD
ENDBRANCH   7  21
TORSDOF 1
ENDMDL
MODEL 4
REMARK VINA RESULT:      -5.5      2.261      2.856
REMARK  1 active torsions:
REMARK  status: ('A' for Active; 'I' for Inactive)
REMARK    1  A    between atoms: C_7  and  O_13 
ROOT
ATOM      1  C   LIG d   1       3.415  -0.391  -7.015  0.00  0.00    -0.061 A 
ATOM      2  C   LIG d   1       2.653   0.551  -6.344  0.00  0.00    -0.061 A 
ATOM      3  C   LIG d   1       2.704   0.625  -4.969  0.00  0.00    -0.051 A 
ATOM      4  C   LIG d   1       3.525  -0.254  -4.256  0.00  0.00     0.023 A 
ATOM      5  C   LIG d   1       4.289  -1.206  -4.934  0.00  0.00    -0.009 A 
ATOM      6  C   LIG d   1       4.227  -1.263  -6.315  0.00  0.00    -0.056 A 
ATOM      7  C   LIG d   1       5.179  -2.171  -4.200  0.00  0.00     0.081 C 
ATOM      8  H   LIG d   1       6.088  -2.331  -4.780  0.00  0.00     0.064 H 
ATOM      9  C   LIG d   1       5.553  -1.638  -2.820  0.00  0.00    -0.016 C 
ATOM     10  C   LIG d   1       4.277  -1.293  -2.042  0.00  0.00     0.013 C 
ATOM     11  C   LIG d   1       3.586  -0.167  -2.784  0.00  0.00     0.164 C 
ATOM     12  O   LIG d   1       3.100   0.771  -2.190  0.00  0.00    -0.292 OA
ATOM     13  H   LIG d   1       3.374  -0.444  -8.092  0.00  0.00     0.062 H 
ATOM     14  H   LIG d   1       2.021   1.228  -6.899  0.00  0.00     0.062 H 
ATOM     15  H   LIG d   1       2.110   1.358  -4.443  0.00  0.00     0.062 H 
ATOM     16  H   LIG d   1       4.816  -1.994  -6.848  0.00  0.00     0.062 H 
ATOM     17  H   LIG d   1       6.114  -2.397  -2.276  0.00  0.00     0.030 H 
ATOM     18  H   LIG d   1       6.165  -0.742  -2.930  0.00  0.00     0.030 H 
ATOM     19  H   LIG d   1       4.519  -1.010  -1.114  0.00  0.00     0.035 H 
ATOM     20  H   LIG d   1       3.623  -2.163  -1.997  0.00  0.00     0.035 H 
ENDROOT
BRANCH   7  21
ATOM     21  O   LIG d   1       4.494  -3.417  -4.051  0.00  0.00    -0.387 OA
ATOM     22  H   LIG d   1       5.075  -4.189  -4.068  0.00  0.00     0.210 HD
ENDBRANCH   7  21
TORSDOF 1
ENDMDL
MODEL 5
REMARK VINA RESULT:      -5.5      1.451      2.450
REMARK  1 active torsions:
REMARK  status: ('A' for Active; 'I' for Inactive)
REMARK    1  A    between atoms: C_7  and  O_13 
ROOT
ATOM      1  C   LIG d   1       5.964  -3.220  -4.416  0.00  0.00    -0.061 A 
ATOM      2  C   LIG d   1       7.055  -2.369  -4.380  0.00  0.00    -0.061 A 
ATOM      3  C   LIG d   1       6.899  -1.064  -3.963  0.00  0.00    -0.051 A 
ATOM      4  C   LIG d   1       5.636  -0.605  -3.579  0.00  0.00     0.023 A 
ATOM      5  C   LIG d   1       4.535  -1.463  -3.620  0.00  0.00    -0.009 A 
ATOM      6  C   LIG d   1       4.713  -2.770  -4.038  0.00  0.00    -0.056 A 
ATOM      7  C   LIG d   1       3.161  -1.002  -3.220  0.00  0.00     0.081 C 
ATOM      8  H   LIG d   1       2.648  -1.814  -2.703  0.00  0.00     0.064 H 
ATOM      9  C   LIG d   1       3.231   0.211  -2.297  0.00  0.00    -0.016 C 
ATOM     10  C   LIG d   1       4.059   1.315  -2.967  0.00  0.00     0.013 C 
ATOM     11  C   LIG d   1       5.471   0.789  -3.123  0.00  0.00     0.164 C 
ATOM     12  O   LIG d   1       6.432   1.489  -2.883  0.00  0.00    -0.292 OA
ATOM     13  H   LIG d   1       6.092  -4.241  -4.741  0.00  0.00     0.062 H 
ATOM     14  H   LIG d   1       8.030  -2.728  -4.677  0.00  0.00     0.062 H 
ATOM     15  H   LIG d   1       7.749  -0.398  -3.934  0.00  0.00     0.062 H 
ATOM     16  H   LIG d   1       3.868  -3.442  -4.071  0.00  0.00     0.062 H 
ATOM     17  H   LIG d   1       2.225   0.581  -2.103  0.00  0.00     0.030 H 
ATOM     18  H   LIG d   1       3.702  -0.074  -1.356  0.00  0.00     0.030 H 
ATOM     19  H   LIG d   1       4.047   2.134  -2.394  0.00  0.00     0.035 H 
ATOM     20  H   LIG d   1       3.641   1.550  -3.946  0.00  0.00     0.035 H 
ENDROOT
BRANCH   7  21
ATOM     21  O   LIG d   1       2.424  -0.656  -4.394  0.00  0.00    -0.387 OA
ATOM     22  H   LIG d   1       1.861  -1.367  -4.730  0.00  0.00     0.210 HD
ENDBRANCH   7  21
TORSDOF 1
ENDMDL
MODEL 6
REMARK VINA RESULT:      -5.1      1.805      3.303
REMARK  1 active torsions:
REMARK  status: ('A' for Active; 'I' for Inactive)
REMARK    1  A    between atoms: C_7  and  O_13 
ROOT
ATOM      1  C   LIG d   1       3.199   0.480  -2.359  0.00  0.00    -0.061 A 
ATOM      2  C   LIG d   1       4.375   1.159  -2.086  0.00  0.00    -0.061 A 
ATOM      3  C   LIG d   1       5.561   0.736  -2.646  0.00  0.00    -0.051 A 
ATOM      4  C   LIG d   1       5.572  -0.380  -3.488  0.00  0.00     0.023 A 
ATOM      5  C   LIG d   1       4.386  -1.066  -3.759  0.00  0.00    -0.009 A 
ATOM      6  C   LIG d   1       3.206  -0.624  -3.189  0.00  0.00    -0.056 A 
ATOM      7  C   LIG d   1       4.362  -2.273  -4.655  0.00  0.00     0.081 C 
ATOM      8  H   LIG d   1       3.444  -2.263  -5.243  0.00  0.00     0.064 H 
ATOM      9  C   LIG d   1       5.560  -2.286  -5.599  0.00  0.00    -0.016 C 
ATOM     10  C   LIG d   1       6.854  -2.176  -4.783  0.00  0.00     0.013 C 
ATOM     11  C   LIG d   1       6.841  -0.826  -4.095  0.00  0.00     0.164 C 
ATOM     12  O   LIG d   1       7.837  -0.137  -4.045  0.00  0.00    -0.292 OA
ATOM     13  H   LIG d   1       2.273   0.816  -1.919  0.00  0.00     0.062 H 
ATOM     14  H   LIG d   1       4.362   2.021  -1.435  0.00  0.00     0.062 H 
ATOM     15  H   LIG d   1       6.479   1.264  -2.434  0.00  0.00     0.062 H 
ATOM     16  H   LIG d   1       2.283  -1.147  -3.395  0.00  0.00     0.062 H 
ATOM     17  H   LIG d   1       5.568  -3.217  -6.165  0.00  0.00     0.030 H 
ATOM     18  H   LIG d   1       5.492  -1.443  -6.286  0.00  0.00     0.030 H 
ATOM     19  H   LIG d   1       7.642  -2.255  -5.394  0.00  0.00     0.035 H 
ATOM     20  H   LIG d   1       6.893  -2.971  -4.038  0.00  0.00     0.035 H 
ENDROOT
BRANCH   7  21
ATOM     21  O   LIG d   1       4.387  -3.454  -3.849  0.00  0.00    -0.387 OA
ATOM     22  H   LIG d   1       5.099  -4.068  -4.074  0.00  0.00     0.210 HD
ENDBRANCH   7  21
TORSDOF 1
ENDMDL
MODEL 7
REMARK VINA RESULT:      -5.0      2.445      3.714
REMARK  1 active torsions:
REMARK  status: ('A' for Active; 'I' for Inactive)
REMARK    1  A    between atoms: C_7  and  O_13 
ROOT
ATOM      1  C   LIG d   1       4.461   0.753  -1.855  0.00  0.00    -0.061 A 
ATOM      2  C   LIG d   1       5.604   0.080  -2.252  0.00  0.00    -0.061 A 
ATOM      3  C   LIG d   1       5.713  -0.394  -3.542  0.00  0.00    -0.051 A 
ATOM      4  C   LIG d   1       4.665  -0.194  -4.445  0.00  0.00     0.023 A 
ATOM      5  C   LIG d   1       3.511   0.482  -4.043  0.00  0.00    -0.009 A 
ATOM      6  C   LIG d   1       3.422   0.953  -2.745  0.00  0.00    -0.056 A 
ATOM      7  C   LIG d   1       2.363   0.711  -4.985  0.00  0.00     0.081 C 
ATOM      8  H   LIG d   1       1.931   1.693  -4.791  0.00  0.00     0.064 H 
ATOM      9  C   LIG d   1       2.819   0.646  -6.440  0.00  0.00    -0.016 C 
ATOM     10  C   LIG d   1       3.540  -0.685  -6.690  0.00  0.00     0.013 C 
ATOM     11  C   LIG d   1       4.786  -0.693  -5.829  0.00  0.00     0.164 C 
ATOM     12  O   LIG d   1       5.845  -1.095  -6.260  0.00  0.00    -0.292 OA
ATOM     13  H   LIG d   1       4.382   1.124  -0.845  0.00  0.00     0.062 H 
ATOM     14  H   LIG d   1       6.412  -0.073  -1.551  0.00  0.00     0.062 H 
ATOM     15  H   LIG d   1       6.603  -0.920  -3.853  0.00  0.00     0.062 H 
ATOM     16  H   LIG d   1       2.535   1.479  -2.425  0.00  0.00     0.062 H 
ATOM     17  H   LIG d   1       1.954   0.718  -7.098  0.00  0.00     0.030 H 
ATOM     18  H   LIG d   1       3.502   1.472  -6.645  0.00  0.00     0.030 H 
ATOM     19  H   LIG d   1       3.778  -0.758  -7.659  0.00  0.00     0.035 H 
ATOM     20  H   LIG d   1       2.892  -1.516  -6.412  0.00  0.00     0.035 H 
ENDROOT
BRANCH   7  21
ATOM     21  O   LIG d   1       1.368  -0.290  -4.762  0.00  0.00    -0.387 OA
ATOM     22  H   LIG d   1       1.525  -0.833  -3.978  0.00  0.00     0.210 HD
ENDBRANCH   7  21
TORSDOF 1
ENDMDL
MODEL 8
REMARK VINA RESULT:      -5.0      2.715      4.324
REMARK  1 active torsions:
REMARK  status: ('A' for Active; 'I' for Inactive)
REMARK    1  A    between atoms: C_7  and  O_13 
ROOT
ATOM      1  C   LIG d   1       3.208  -0.315  -2.687  0.00  0.00    -0.061 A 
ATOM      2  C   LIG d   1       3.694  -1.545  -2.277  0.00  0.00    -0.061 A 
ATOM      3  C   LIG d   1       4.291  -2.388  -3.189  0.00  0.00    -0.051 A 
ATOM      4  C   LIG d   1       4.403  -1.999  -4.526  0.00  0.00     0.023 A 
ATOM      5  C   LIG d   1       3.909  -0.759  -4.939  0.00  0.00    -0.009 A 
ATOM      6  C   LIG d   1       3.316   0.075  -4.009  0.00  0.00    -0.056 A 
ATOM      7  C   LIG d   1       4.007  -0.309  -6.371  0.00  0.00     0.081 C 
ATOM      8  H   LIG d   1       4.205   0.762  -6.396  0.00  0.00     0.064 H 
ATOM      9  C   LIG d   1       5.125  -1.042  -7.106  0.00  0.00    -0.016 C 
ATOM     10  C   LIG d   1       4.921  -2.556  -6.969  0.00  0.00     0.013 C 
ATOM     11  C   LIG d   1       5.051  -2.899  -5.500  0.00  0.00     0.164 C 
ATOM     12  O   LIG d   1       5.666  -3.878  -5.136  0.00  0.00    -0.292 OA
ATOM     13  H   LIG d   1       2.744   0.344  -1.970  0.00  0.00     0.062 H 
ATOM     14  H   LIG d   1       3.606  -1.842  -1.243  0.00  0.00     0.062 H 
ATOM     15  H   LIG d   1       4.670  -3.349  -2.871  0.00  0.00     0.062 H 
ATOM     16  H   LIG d   1       2.933   1.036  -4.318  0.00  0.00     0.062 H 
ATOM     17  H   LIG d   1       5.109  -0.768  -8.160  0.00  0.00     0.030 H 
ATOM     18  H   LIG d   1       6.087  -0.766  -6.673  0.00  0.00     0.030 H 
ATOM     19  H   LIG d   1       5.613  -3.036  -7.509  0.00  0.00     0.035 H 
ATOM     20  H   LIG d   1       3.928  -2.830  -7.327  0.00  0.00     0.035 H 
ENDROOT
BRANCH   7  21
ATOM     21  O   LIG d   1       2.765  -0.570  -7.029  0.00  0.00    -0.387 OA
ATOM     22  H   LIG d   1       2.549  -1.510  -7.102  0.00  0.00     0.210 HD
ENDBRANCH   7  21
TORSDOF 1
ENDMDL
MODEL 9
REMARK VINA RESULT:      -4.7      9.384     11.392
REMARK  1 active torsions:
REMARK  status: ('A' for Active; 'I' for Inactive)
REMARK    1  A    between atoms: C_7  and  O_13 
ROOT
ATOM      1  C   LIG d   1      10.650  11.076   0.723  0.00  0.00    -0.061 A 
ATOM      2  C   LIG d   1      11.585  10.427   1.511  0.00  0.00    -0.061 A 
ATOM      3  C   LIG d   1      11.802   9.075   1.352  0.00  0.00    -0.051 A 
ATOM      4  C   LIG d   1      11.074   8.364   0.395  0.00  0.00     0.023 A 
ATOM      5  C   LIG d   1      10.128   9.018  -0.397  0.00  0.00    -0.009 A 
ATOM      6  C   LIG d   1       9.926  10.376  -0.224  0.00  0.00    -0.056 A 
ATOM      7  C   LIG d   1       9.322   8.284  -1.432  0.00  0.00     0.081 C 
ATOM      8  H   LIG d   1       9.183   8.928  -2.300  0.00  0.00     0.064 H 
ATOM      9  C   LIG d   1      10.022   7.000  -1.869  0.00  0.00    -0.016 C 
ATOM     10  C   LIG d   1      10.332   6.142  -0.636  0.00  0.00     0.013 C 
ATOM     11  C   LIG d   1      11.313   6.918   0.218  0.00  0.00     0.164 C 
ATOM     12  O   LIG d   1      12.262   6.371   0.740  0.00  0.00    -0.292 OA
ATOM     13  H   LIG d   1      10.485  12.135   0.850  0.00  0.00     0.062 H 
ATOM     14  H   LIG d   1      12.147  10.981   2.250  0.00  0.00     0.062 H 
ATOM     15  H   LIG d   1      12.531   8.567   1.966  0.00  0.00     0.062 H 
ATOM     16  H   LIG d   1       9.199  10.891  -0.833  0.00  0.00     0.062 H 
ATOM     17  H   LIG d   1       9.373   6.442  -2.544  0.00  0.00     0.030 H 
ATOM     18  H   LIG d   1      10.952   7.249  -2.382  0.00  0.00     0.030 H 
ATOM     19  H   LIG d   1      10.727   5.271  -0.928  0.00  0.00     0.035 H 
ATOM     20  H   LIG d   1       9.418   5.955  -0.074  0.00  0.00     0.035 H 
ENDROOT
BRANCH   7  21
ATOM     21  O   LIG d   1       8.043   7.956  -0.884  0.00  0.00    -0.387 OA
ATOM     22  H   LIG d   1       7.360   7.793  -1.548  0.00  0.00     0.210 HD
ENDBRANCH   7  21
TORSDOF 1
ENDMDL
MODEL 10
REMARK VINA RESULT:      -4.5      2.358      3.503
REMARK  1 active torsions:
REMARK  status: ('A' for Active; 'I' for Inactive)
REMARK    1  A    between atoms: C_7  and  O_13 
ROOT
ATOM      1  C   LIG d   1       5.296  -0.815  -7.376  0.00  0.00    -0.061 A 
ATOM      2  C   LIG d   1       5.813  -1.964  -6.802  0.00  0.00    -0.061 A 
ATOM      3  C   LIG d   1       5.371  -2.375  -5.563  0.00  0.00    -0.051 A 
ATOM      4  C   LIG d   1       4.401  -1.627  -4.890  0.00  0.00     0.023 A 
ATOM      5  C   LIG d   1       3.883  -0.466  -5.468  0.00  0.00    -0.009 A 
ATOM      6  C   LIG d   1       4.338  -0.072  -6.713  0.00  0.00    -0.056 A 
ATOM      7  C   LIG d   1       2.844   0.367  -4.770  0.00  0.00     0.081 C 
ATOM      8  H   LIG d   1       2.141   0.754  -5.508  0.00  0.00     0.064 H 
ATOM      9  C   LIG d   1       2.079  -0.456  -3.736  0.00  0.00    -0.016 C 
ATOM     10  C   LIG d   1       3.073  -1.107  -2.765  0.00  0.00     0.013 C 
ATOM     11  C   LIG d   1       3.921  -2.072  -3.567  0.00  0.00     0.164 C 
ATOM     12  O   LIG d   1       4.196  -3.172  -3.137  0.00  0.00    -0.292 OA
ATOM     13  H   LIG d   1       5.644  -0.499  -8.348  0.00  0.00     0.062 H 
ATOM     14  H   LIG d   1       6.562  -2.540  -7.326  0.00  0.00     0.062 H 
ATOM     15  H   LIG d   1       5.774  -3.270  -5.113  0.00  0.00     0.062 H 
ATOM     16  H   LIG d   1       3.942   0.823  -7.170  0.00  0.00     0.062 H 
ATOM     17  H   LIG d   1       1.404   0.194  -3.181  0.00  0.00     0.030 H 
ATOM     18  H   LIG d   1       1.505  -1.233  -4.242  0.00  0.00     0.030 H 
ATOM     19  H   LIG d   1       2.570  -1.588  -2.047  0.00  0.00     0.035 H 
ATOM     20  H   LIG d   1       3.706  -0.343  -2.315  0.00  0.00     0.035 H 
ENDROOT
BRANCH   7  21
ATOM     21  O   LIG d   1       3.485   1.463  -4.115  0.00  0.00    -0.387 OA
ATOM     22  H   LIG d   1       4.352   1.687  -4.480  0.00  0.00     0.210 HD
ENDBRANCH   7  21
TORSDOF 1
ENDMDL
