MODEL 1
REMARK VINA RESULT:      -6.5      0.000      0.000
REMARK  5 active torsions:
REMARK  status: ('A' for Active; 'I' for Inactive)
REMARK    1  A    between atoms: C_1  and  C_2 
REMARK    2  A    between atoms: C_2  and  C_13 
REMARK    3  A    between atoms: N_3  and  C_4 
REMARK    4  A    between atoms: C_8  and  N_10 
REMARK    5  A    between atoms: N_21  and  C_24 
ROOT
ATOM      1  C   LIG d   1       5.457  -2.930  -5.085  0.00  0.00     0.052 A 
ATOM      2  C   LIG d   1       4.764  -2.620  -3.881  0.00  0.00     0.198 A 
ATOM      3  C   LIG d   1       4.930  -1.268  -3.319  0.00  0.00     0.046 A 
ATOM      4  C   LIG d   1       4.283  -0.894  -2.141  0.00  0.00    -0.049 A 
ATOM      5  C   LIG d   1       4.459   0.377  -1.640  0.00  0.00    -0.061 A 
ATOM      6  C   LIG d   1       5.275   1.284  -2.303  0.00  0.00    -0.060 A 
ATOM      7  C   LIG d   1       5.920   0.929  -3.467  0.00  0.00    -0.037 A 
ATOM      8  C   LIG d   1       5.757  -0.352  -3.988  0.00  0.00     0.052 A 
ATOM      9  N   LIG d   1       6.398  -0.722  -5.154  0.00  0.00    -0.356 N 
ATOM     10  C   LIG d   1       6.261  -1.961  -5.681  0.00  0.00    -0.023 A 
ATOM     11  O   LIG d   1       6.918  -2.264  -6.819  0.00  0.00    -0.861 OA
ATOM     12  O   LIG d   1       4.057  -3.447  -3.332  0.00  0.00    -0.286 OA
ATOM     13  H   LIG d   1       3.647  -1.597  -1.624  0.00  0.00     0.062 H 
ATOM     14  H   LIG d   1       3.959   0.670  -0.730  0.00  0.00     0.062 H 
ATOM     15  H   LIG d   1       5.405   2.278  -1.901  0.00  0.00     0.062 H 
ATOM     16  H   LIG d   1       6.552   1.642  -3.974  0.00  0.00     0.064 H 
ENDROOT
BRANCH   1  17
ATOM     17  C   LIG d   1       5.330  -4.257  -5.689  0.00  0.00     0.051 C 
ATOM     18  N   LIG d   1       6.194  -5.193  -5.396  0.00  0.00    -0.252 NA
BRANCH  17  19
ATOM     19  C   LIG d   1       4.204  -4.544  -6.648  0.00  0.00    -0.022 C 
ATOM     20  H   LIG d   1       3.305  -4.803  -6.087  0.00  0.00     0.029 H 
ATOM     21  H   LIG d   1       4.010  -3.660  -7.256  0.00  0.00     0.029 H 
ATOM     22  H   LIG d   1       4.480  -5.377  -7.295  0.00  0.00     0.029 H 
ENDBRANCH  17  19
BRANCH  18  23
ATOM     23  C   LIG d   1       6.075  -6.435  -5.962  0.00  0.00     0.071 A 
ATOM     24  C   LIG d   1       5.273  -7.405  -5.360  0.00  0.00     0.041 A 
ATOM     25  C   LIG d   1       5.153  -8.652  -5.940  0.00  0.00     0.275 A 
ATOM     26  H   LIG d   1       4.743  -7.180  -4.447  0.00  0.00     0.071 H 
ATOM     27  C   LIG d   1       5.836  -8.945  -7.106  0.00  0.00     0.016 A 
ATOM     28  C   LIG d   1       6.638  -7.990  -7.704  0.00  0.00    -0.053 A 
ATOM     29  H   LIG d   1       5.742  -9.924  -7.552  0.00  0.00     0.069 H 
ATOM     30  C   LIG d   1       6.763  -6.737  -7.140  0.00  0.00    -0.036 A 
ATOM     31  H   LIG d   1       7.169  -8.225  -8.615  0.00  0.00     0.062 H 
ATOM     32  H   LIG d   1       7.388  -5.992  -7.608  0.00  0.00     0.064 H 
BRANCH  25  33
ATOM     33  N   LIG d   1       4.295  -9.680  -5.306  0.00  0.00     0.080 N 
ATOM     34  O   LIG d   1       4.056 -10.711  -5.893  0.00  0.00     0.041 OA
ATOM     35  O   LIG d   1       3.835  -9.490  -4.205  0.00  0.00    -0.576 OA
ENDBRANCH  25  33
ENDBRANCH  18  23
ENDBRANCH   1  17
BRANCH   9  36
ATOM     36  C   LIG d   1       7.255   0.251  -5.836  0.00  0.00     0.011 C 
ATOM     37  H   LIG d   1       8.212   0.318  -5.317  0.00  0.00     0.045 H 
ATOM     38  H   LIG d   1       7.421  -0.069  -6.864  0.00  0.00     0.045 H 
ATOM     39  H   LIG d   1       6.770   1.227  -5.832  0.00  0.00     0.045 H 
ENDBRANCH   9  36
TORSDOF 5
ENDMDL
MODEL 2
REMARK VINA RESULT:      -6.4      5.144      9.958
REMARK  5 active torsions:
REMARK  status: ('A' for Active; 'I' for Inactive)
REMARK    1  A    between atoms: C_1  and  C_2 
REMARK    2  A    between atoms: C_2  and  C_13 
REMARK    3  A    between atoms: N_3  and  C_4 
REMARK    4  A    between atoms: C_8  and  N_10 
REMARK    5  A    between atoms: N_21  and  C_24 
ROOT
ATOM      1  C   LIG d   1       7.708   0.753  -4.092  0.00  0.00     0.052 A 
ATOM      2  C   LIG d   1       6.498   0.806  -3.344  0.00  0.00     0.198 A 
ATOM      3  C   LIG d   1       5.676  -0.416  -3.276  0.00  0.00     0.046 A 
ATOM      4  C   LIG d   1       4.477  -0.438  -2.563  0.00  0.00    -0.049 A 
ATOM      5  C   LIG d   1       3.731  -1.594  -2.518  0.00  0.00    -0.061 A 
ATOM      6  C   LIG d   1       4.168  -2.735  -3.179  0.00  0.00    -0.060 A 
ATOM      7  C   LIG d   1       5.349  -2.728  -3.887  0.00  0.00    -0.037 A 
ATOM      8  C   LIG d   1       6.117  -1.569  -3.945  0.00  0.00     0.052 A 
ATOM      9  N   LIG d   1       7.303  -1.546  -4.652  0.00  0.00    -0.356 N 
ATOM     10  C   LIG d   1       8.068  -0.433  -4.730  0.00  0.00    -0.023 A 
ATOM     11  O   LIG d   1       9.213  -0.473  -5.440  0.00  0.00    -0.861 OA
ATOM     12  O   LIG d   1       6.153   1.829  -2.778  0.00  0.00    -0.286 OA
ATOM     13  H   LIG d   1       4.136   0.448  -2.047  0.00  0.00     0.062 H 
ATOM     14  H   LIG d   1       2.804  -1.615  -1.967  0.00  0.00     0.062 H 
ATOM     15  H   LIG d   1       3.574  -3.637  -3.137  0.00  0.00     0.062 H 
ATOM     16  H   LIG d   1       5.679  -3.621  -4.397  0.00  0.00     0.064 H 
ENDROOT
BRANCH   1  17
ATOM     17  C   LIG d   1       8.564   1.935  -4.195  0.00  0.00     0.051 C 
ATOM     18  N   LIG d   1       9.450   2.183  -3.266  0.00  0.00    -0.252 NA
BRANCH  17  19
ATOM     19  C   LIG d   1       8.425   2.867  -5.370  0.00  0.00    -0.022 C 
ATOM     20  H   LIG d   1       8.419   3.899  -5.018  0.00  0.00     0.029 H 
ATOM     21  H   LIG d   1       9.263   2.722  -6.051  0.00  0.00     0.029 H 
ATOM     22  H   LIG d   1       7.491   2.658  -5.892  0.00  0.00     0.029 H 
ENDBRANCH  17  19
BRANCH  18  23
ATOM     23  C   LIG d   1      10.251   3.289  -3.361  0.00  0.00     0.071 A 
ATOM     24  C   LIG d   1       9.894   4.471  -2.711  0.00  0.00     0.041 A 
ATOM     25  C   LIG d   1      10.710   5.580  -2.806  0.00  0.00     0.275 A 
ATOM     26  H   LIG d   1       8.984   4.517  -2.131  0.00  0.00     0.071 H 
ATOM     27  C   LIG d   1      11.872   5.526  -3.554  0.00  0.00     0.016 A 
ATOM     28  C   LIG d   1      12.228   4.359  -4.207  0.00  0.00    -0.053 A 
ATOM     29  H   LIG d   1      12.504   6.398  -3.629  0.00  0.00     0.069 H 
ATOM     30  C   LIG d   1      11.426   3.240  -4.115  0.00  0.00    -0.036 A 
ATOM     31  H   LIG d   1      13.137   4.323  -4.789  0.00  0.00     0.062 H 
ATOM     32  H   LIG d   1      11.706   2.331  -4.624  0.00  0.00     0.064 H 
BRANCH  25  33
ATOM     33  N   LIG d   1      10.336   6.833  -2.110  0.00  0.00     0.080 N 
ATOM     34  O   LIG d   1       9.507   6.809  -1.230  0.00  0.00     0.041 OA
ATOM     35  O   LIG d   1      10.859   7.877  -2.422  0.00  0.00    -0.576 OA
ENDBRANCH  25  33
ENDBRANCH  18  23
ENDBRANCH   1  17
BRANCH   9  36
ATOM     36  C   LIG d   1       7.744  -2.761  -5.342  0.00  0.00     0.011 C 
ATOM     37  H   LIG d   1       8.441  -3.308  -4.705  0.00  0.00     0.045 H 
ATOM     38  H   LIG d   1       6.880  -3.391  -5.557  0.00  0.00     0.045 H 
ATOM     39  H   LIG d   1       8.238  -2.491  -6.274  0.00  0.00     0.045 H 
ENDBRANCH   9  36
TORSDOF 5
ENDMDL
MODEL 3
REMARK VINA RESULT:      -6.2      4.506      6.160
REMARK  5 active torsions:
REMARK  status: ('A' for Active; 'I' for Inactive)
REMARK    1  A    between atoms: C_1  and  C_2 
REMARK    2  A    between atoms: C_2  and  C_13 
REMARK    3  A    between atoms: N_3  and  C_4 
REMARK    4  A    between atoms: C_8  and  N_10 
REMARK    5  A    between atoms: N_21  and  C_24 
ROOT
ATOM      1  C   LIG d   1       4.123  -1.018  -6.748  0.00  0.00     0.052 A 
ATOM      2  C   LIG d   1       3.539  -0.037  -5.898  0.00  0.00     0.198 A 
ATOM      3  C   LIG d   1       3.876  -0.078  -4.463  0.00  0.00     0.046 A 
ATOM      4  C   LIG d   1       3.340   0.850  -3.570  0.00  0.00    -0.049 A 
ATOM      5  C   LIG d   1       3.673   0.784  -2.236  0.00  0.00    -0.061 A 
ATOM      6  C   LIG d   1       4.539  -0.201  -1.778  0.00  0.00    -0.060 A 
ATOM      7  C   LIG d   1       5.076  -1.124  -2.649  0.00  0.00    -0.037 A 
ATOM      8  C   LIG d   1       4.750  -1.075  -4.001  0.00  0.00     0.052 A 
ATOM      9  N   LIG d   1       5.280  -1.994  -4.885  0.00  0.00    -0.356 N 
ATOM     10  C   LIG d   1       4.977  -1.974  -6.204  0.00  0.00    -0.023 A 
ATOM     11  O   LIG d   1       5.523  -2.902  -7.014  0.00  0.00    -0.861 OA
ATOM     12  O   LIG d   1       2.784   0.811  -6.342  0.00  0.00    -0.286 OA
ATOM     13  H   LIG d   1       2.667   1.617  -3.924  0.00  0.00     0.062 H 
ATOM     14  H   LIG d   1       3.261   1.501  -1.543  0.00  0.00     0.062 H 
ATOM     15  H   LIG d   1       4.794  -0.242  -0.729  0.00  0.00     0.062 H 
ATOM     16  H   LIG d   1       5.748  -1.885  -2.282  0.00  0.00     0.064 H 
ENDROOT
BRANCH   1  17
ATOM     17  C   LIG d   1       3.824  -1.024  -8.180  0.00  0.00     0.051 C 
ATOM     18  N   LIG d   1       2.878  -1.796  -8.646  0.00  0.00    -0.252 NA
BRANCH  17  19
ATOM     19  C   LIG d   1       4.608  -0.143  -9.118  0.00  0.00    -0.022 C 
ATOM     20  H   LIG d   1       3.920   0.405  -9.762  0.00  0.00     0.029 H 
ATOM     21  H   LIG d   1       5.203   0.564  -8.540  0.00  0.00     0.029 H 
ATOM     22  H   LIG d   1       5.267  -0.758  -9.730  0.00  0.00     0.029 H 
ENDBRANCH  17  19
BRANCH  18  23
ATOM     23  C   LIG d   1       2.598  -1.803  -9.987  0.00  0.00     0.071 A 
ATOM     24  C   LIG d   1       3.385  -2.551 -10.863  0.00  0.00     0.041 A 
ATOM     25  C   LIG d   1       3.093  -2.559 -12.212  0.00  0.00     0.275 A 
ATOM     26  H   LIG d   1       4.217  -3.128 -10.487  0.00  0.00     0.071 H 
ATOM     27  C   LIG d   1       2.032  -1.816 -12.698  0.00  0.00     0.016 A 
ATOM     28  C   LIG d   1       1.253  -1.066 -11.835  0.00  0.00    -0.053 A 
ATOM     29  H   LIG d   1       1.812  -1.822 -13.755  0.00  0.00     0.069 H 
ATOM     30  C   LIG d   1       1.528  -1.055 -10.483  0.00  0.00    -0.036 A 
ATOM     31  H   LIG d   1       0.425  -0.489 -12.220  0.00  0.00     0.062 H 
ATOM     32  H   LIG d   1       0.918  -0.470  -9.812  0.00  0.00     0.064 H 
BRANCH  25  33
ATOM     33  N   LIG d   1       3.923  -3.359 -13.142  0.00  0.00     0.080 N 
ATOM     34  O   LIG d   1       3.495  -3.648 -14.236  0.00  0.00     0.041 OA
ATOM     35  O   LIG d   1       5.025  -3.724 -12.808  0.00  0.00    -0.576 OA
ENDBRANCH  25  33
ENDBRANCH  18  23
ENDBRANCH   1  17
BRANCH   9  36
ATOM     36  C   LIG d   1       6.191  -3.025  -4.379  0.00  0.00     0.011 C 
ATOM     37  H   LIG d   1       5.644  -3.959  -4.248  0.00  0.00     0.045 H 
ATOM     38  H   LIG d   1       7.001  -3.175  -5.093  0.00  0.00     0.045 H 
ATOM     39  H   LIG d   1       6.604  -2.707  -3.423  0.00  0.00     0.045 H 
ENDBRANCH   9  36
TORSDOF 5
ENDMDL
MODEL 4
REMARK VINA RESULT:      -6.0      4.867      9.837
REMARK  5 active torsions:
REMARK  status: ('A' for Active; 'I' for Inactive)
REMARK    1  A    between atoms: C_1  and  C_2 
REMARK    2  A    between atoms: C_2  and  C_13 
REMARK    3  A    between atoms: N_3  and  C_4 
REMARK    4  A    between atoms: C_8  and  N_10 
REMARK    5  A    between atoms: N_21  and  C_24 
ROOT
ATOM      1  C   LIG d   1       7.722   0.758  -4.132  0.00  0.00     0.052 A 
ATOM      2  C   LIG d   1       6.500   0.972  -3.433  0.00  0.00     0.198 A 
ATOM      3  C   LIG d   1       5.618  -0.189  -3.215  0.00  0.00     0.046 A 
ATOM      4  C   LIG d   1       4.405  -0.055  -2.540  0.00  0.00    -0.049 A 
ATOM      5  C   LIG d   1       3.603  -1.158  -2.353  0.00  0.00    -0.061 A 
ATOM      6  C   LIG d   1       3.997  -2.400  -2.833  0.00  0.00    -0.060 A 
ATOM      7  C   LIG d   1       5.193  -2.548  -3.501  0.00  0.00    -0.037 A 
ATOM      8  C   LIG d   1       6.017  -1.444  -3.702  0.00  0.00     0.052 A 
ATOM      9  N   LIG d   1       7.218  -1.577  -4.370  0.00  0.00    -0.356 N 
ATOM     10  C   LIG d   1       8.037  -0.521  -4.584  0.00  0.00    -0.023 A 
ATOM     11  O   LIG d   1       9.193  -0.714  -5.249  0.00  0.00    -0.861 OA
ATOM     12  O   LIG d   1       6.193   2.080  -3.027  0.00  0.00    -0.286 OA
ATOM     13  H   LIG d   1       4.097   0.910  -2.165  0.00  0.00     0.062 H 
ATOM     14  H   LIG d   1       2.664  -1.058  -1.830  0.00  0.00     0.062 H 
ATOM     15  H   LIG d   1       3.360  -3.259  -2.679  0.00  0.00     0.062 H 
ATOM     16  H   LIG d   1       5.489  -3.518  -3.870  0.00  0.00     0.064 H 
ENDROOT
BRANCH   1  17
ATOM     17  C   LIG d   1       8.636   1.874  -4.377  0.00  0.00     0.051 C 
ATOM     18  N   LIG d   1       8.512   2.595  -5.460  0.00  0.00    -0.252 NA
BRANCH  17  19
ATOM     19  C   LIG d   1       9.722   2.191  -3.381  0.00  0.00    -0.022 C 
ATOM     20  H   LIG d   1       9.391   2.999  -2.727  0.00  0.00     0.029 H 
ATOM     21  H   LIG d   1       9.937   1.306  -2.783  0.00  0.00     0.029 H 
ATOM     22  H   LIG d   1      10.623   2.501  -3.911  0.00  0.00     0.029 H 
ENDBRANCH  17  19
BRANCH  18  23
ATOM     23  C   LIG d   1       9.368   3.639  -5.689  0.00  0.00     0.071 A 
ATOM     24  C   LIG d   1       9.158   4.869  -5.064  0.00  0.00     0.041 A 
ATOM     25  C   LIG d   1      10.028   5.914  -5.295  0.00  0.00     0.275 A 
ATOM     26  H   LIG d   1       8.319   5.001  -4.397  0.00  0.00     0.071 H 
ATOM     27  C   LIG d   1      11.100   5.749  -6.154  0.00  0.00     0.016 A 
ATOM     28  C   LIG d   1      11.310   4.534  -6.783  0.00  0.00    -0.053 A 
ATOM     29  H   LIG d   1      11.775   6.572  -6.335  0.00  0.00     0.069 H 
ATOM     30  C   LIG d   1      10.451   3.478  -6.556  0.00  0.00    -0.036 A 
ATOM     31  H   LIG d   1      12.149   4.412  -7.452  0.00  0.00     0.062 H 
ATOM     32  H   LIG d   1      10.617   2.531  -7.046  0.00  0.00     0.064 H 
BRANCH  25  33
ATOM     33  N   LIG d   1       9.811   7.217  -4.626  0.00  0.00     0.080 N 
ATOM     34  O   LIG d   1       9.436   8.170  -5.269  0.00  0.00     0.041 OA
ATOM     35  O   LIG d   1      10.008   7.328  -3.439  0.00  0.00    -0.576 OA
ENDBRANCH  25  33
ENDBRANCH  18  23
ENDBRANCH   1  17
BRANCH   9  36
ATOM     36  C   LIG d   1       7.613  -2.896  -4.869  0.00  0.00     0.011 C 
ATOM     37  H   LIG d   1       6.734  -3.539  -4.934  0.00  0.00     0.045 H 
ATOM     38  H   LIG d   1       8.060  -2.793  -5.857  0.00  0.00     0.045 H 
ATOM     39  H   LIG d   1       8.338  -3.340  -4.187  0.00  0.00     0.045 H 
ENDBRANCH   9  36
TORSDOF 5
ENDMDL
MODEL 5
REMARK VINA RESULT:      -6.0      4.803      6.311
REMARK  5 active torsions:
REMARK  status: ('A' for Active; 'I' for Inactive)
REMARK    1  A    between atoms: C_1  and  C_2 
REMARK    2  A    between atoms: C_2  and  C_13 
REMARK    3  A    between atoms: N_3  and  C_4 
REMARK    4  A    between atoms: C_8  and  N_10 
REMARK    5  A    between atoms: N_21  and  C_24 
ROOT
ATOM      1  C   LIG d   1       4.554  -0.680  -6.685  0.00  0.00     0.052 A 
ATOM      2  C   LIG d   1       3.579  -0.150  -5.793  0.00  0.00     0.198 A 
ATOM      3  C   LIG d   1       4.011   0.200  -4.428  0.00  0.00     0.046 A 
ATOM      4  C   LIG d   1       3.111   0.723  -3.499  0.00  0.00    -0.049 A 
ATOM      5  C   LIG d   1       3.545   1.039  -2.231  0.00  0.00    -0.061 A 
ATOM      6  C   LIG d   1       4.872   0.839  -1.876  0.00  0.00    -0.060 A 
ATOM      7  C   LIG d   1       5.772   0.323  -2.782  0.00  0.00    -0.037 A 
ATOM      8  C   LIG d   1       5.353  -0.004  -4.068  0.00  0.00     0.052 A 
ATOM      9  N   LIG d   1       6.244  -0.522  -4.987  0.00  0.00    -0.356 N 
ATOM     10  C   LIG d   1       5.864  -0.853  -6.243  0.00  0.00    -0.023 A 
ATOM     11  O   LIG d   1       6.780  -1.360  -7.091  0.00  0.00    -0.861 OA
ATOM     12  O   LIG d   1       2.424   0.010  -6.148  0.00  0.00    -0.286 OA
ATOM     13  H   LIG d   1       2.078   0.880  -3.774  0.00  0.00     0.062 H 
ATOM     14  H   LIG d   1       2.851   1.444  -1.511  0.00  0.00     0.062 H 
ATOM     15  H   LIG d   1       5.201   1.091  -0.878  0.00  0.00     0.062 H 
ATOM     16  H   LIG d   1       6.802   0.172  -2.494  0.00  0.00     0.064 H 
ENDROOT
BRANCH   1  17
ATOM     17  C   LIG d   1       4.182  -1.045  -8.052  0.00  0.00     0.051 C 
ATOM     18  N   LIG d   1       4.048  -0.116  -8.962  0.00  0.00    -0.252 NA
BRANCH  17  19
ATOM     19  C   LIG d   1       3.953  -2.490  -8.411  0.00  0.00    -0.022 C 
ATOM     20  H   LIG d   1       4.634  -3.120  -7.838  0.00  0.00     0.029 H 
ATOM     21  H   LIG d   1       2.924  -2.764  -8.179  0.00  0.00     0.029 H 
ATOM     22  H   LIG d   1       4.136  -2.634  -9.476  0.00  0.00     0.029 H 
ENDBRANCH  17  19
BRANCH  18  23
ATOM     23  C   LIG d   1       3.700  -0.457 -10.242  0.00  0.00     0.071 A 
ATOM     24  C   LIG d   1       2.423  -0.952 -10.513  0.00  0.00     0.041 A 
ATOM     25  C   LIG d   1       2.077  -1.287 -11.806  0.00  0.00     0.275 A 
ATOM     26  H   LIG d   1       1.707  -1.069  -9.713  0.00  0.00     0.071 H 
ATOM     27  C   LIG d   1       2.996  -1.145 -12.830  0.00  0.00     0.016 A 
ATOM     28  C   LIG d   1       4.265  -0.661 -12.567  0.00  0.00    -0.053 A 
ATOM     29  H   LIG d   1       2.721  -1.413 -13.839  0.00  0.00     0.069 H 
ATOM     30  C   LIG d   1       4.623  -0.316 -11.280  0.00  0.00    -0.036 A 
ATOM     31  H   LIG d   1       4.978  -0.552 -13.371  0.00  0.00     0.062 H 
ATOM     32  H   LIG d   1       5.613   0.063 -11.077  0.00  0.00     0.064 H 
BRANCH  25  33
ATOM     33  N   LIG d   1       0.721  -1.805 -12.096  0.00  0.00     0.080 N 
ATOM     34  O   LIG d   1       0.484  -2.984 -11.963  0.00  0.00     0.041 OA
ATOM     35  O   LIG d   1      -0.149  -1.052 -12.465  0.00  0.00    -0.576 OA
ENDBRANCH  25  33
ENDBRANCH  18  23
ENDBRANCH   1  17
BRANCH   9  36
ATOM     36  C   LIG d   1       7.639  -0.725  -4.589  0.00  0.00     0.011 C 
ATOM     37  H   LIG d   1       8.128  -1.386  -5.305  0.00  0.00     0.045 H 
ATOM     38  H   LIG d   1       8.155   0.235  -4.571  0.00  0.00     0.045 H 
ATOM     39  H   LIG d   1       7.672  -1.174  -3.597  0.00  0.00     0.045 H 
ENDBRANCH   9  36
TORSDOF 5
ENDMDL
MODEL 6
REMARK VINA RESULT:      -5.9      4.882      9.669
REMARK  5 active torsions:
REMARK  status: ('A' for Active; 'I' for Inactive)
REMARK    1  A    between atoms: C_1  and  C_2 
REMARK    2  A    between atoms: C_2  and  C_13 
REMARK    3  A    between atoms: N_3  and  C_4 
REMARK    4  A    between atoms: C_8  and  N_10 
REMARK    5  A    between atoms: N_21  and  C_24 
ROOT
ATOM      1  C   LIG d   1       7.632   0.747  -3.997  0.00  0.00     0.052 A 
ATOM      2  C   LIG d   1       6.377   0.922  -3.347  0.00  0.00     0.198 A 
ATOM      3  C   LIG d   1       5.510  -0.260  -3.193  0.00  0.00     0.046 A 
ATOM      4  C   LIG d   1       4.266  -0.165  -2.569  0.00  0.00    -0.049 A 
ATOM      5  C   LIG d   1       3.478  -1.287  -2.441  0.00  0.00    -0.061 A 
ATOM      6  C   LIG d   1       3.918  -2.510  -2.930  0.00  0.00    -0.060 A 
ATOM      7  C   LIG d   1       5.143  -2.620  -3.550  0.00  0.00    -0.037 A 
ATOM      8  C   LIG d   1       5.953  -1.497  -3.690  0.00  0.00     0.052 A 
ATOM      9  N   LIG d   1       7.184  -1.591  -4.309  0.00  0.00    -0.356 N 
ATOM     10  C   LIG d   1       7.991  -0.516  -4.463  0.00  0.00    -0.023 A 
ATOM     11  O   LIG d   1       9.178  -0.672  -5.081  0.00  0.00    -0.861 OA
ATOM     12  O   LIG d   1       6.031   2.014  -2.931  0.00  0.00    -0.286 OA
ATOM     13  H   LIG d   1       3.923   0.786  -2.186  0.00  0.00     0.062 H 
ATOM     14  H   LIG d   1       2.516  -1.216  -1.957  0.00  0.00     0.062 H 
ATOM     15  H   LIG d   1       3.291  -3.383  -2.824  0.00  0.00     0.062 H 
ATOM     16  H   LIG d   1       5.474  -3.575  -3.926  0.00  0.00     0.064 H 
ENDROOT
BRANCH   1  17
ATOM     17  C   LIG d   1       8.534   1.885  -4.177  0.00  0.00     0.051 C 
ATOM     18  N   LIG d   1       9.299   2.274  -3.192  0.00  0.00    -0.252 NA
BRANCH  17  19
ATOM     19  C   LIG d   1       8.580   2.608  -5.498  0.00  0.00    -0.022 C 
ATOM     20  H   LIG d   1       8.011   3.536  -5.425  0.00  0.00     0.029 H 
ATOM     21  H   LIG d   1       9.615   2.837  -5.752  0.00  0.00     0.029 H 
ATOM     22  H   LIG d   1       8.146   1.977  -6.274  0.00  0.00     0.029 H 
ENDBRANCH  17  19
BRANCH  18  23
ATOM     23  C   LIG d   1      10.143   3.339  -3.360  0.00  0.00     0.071 A 
ATOM     24  C   LIG d   1      11.468   3.130  -3.746  0.00  0.00     0.041 A 
ATOM     25  C   LIG d   1      12.311   4.208  -3.920  0.00  0.00     0.275 A 
ATOM     26  H   LIG d   1      11.832   2.126  -3.912  0.00  0.00     0.071 H 
ATOM     27  C   LIG d   1      11.849   5.493  -3.701  0.00  0.00     0.016 A 
ATOM     28  C   LIG d   1      10.539   5.707  -3.313  0.00  0.00    -0.053 A 
ATOM     29  H   LIG d   1      12.514   6.333  -3.835  0.00  0.00     0.069 H 
ATOM     30  C   LIG d   1       9.683   4.639  -3.141  0.00  0.00    -0.036 A 
ATOM     31  H   LIG d   1      10.184   6.713  -3.144  0.00  0.00     0.062 H 
ATOM     32  H   LIG d   1       8.660   4.808  -2.839  0.00  0.00     0.064 H 
BRANCH  25  33
ATOM     33  N   LIG d   1      13.715   3.988  -4.337  0.00  0.00     0.080 N 
ATOM     34  O   LIG d   1      14.039   4.174  -5.487  0.00  0.00     0.041 OA
ATOM     35  O   LIG d   1      14.535   3.622  -3.528  0.00  0.00    -0.576 OA
ENDBRANCH  25  33
ENDBRANCH  18  23
ENDBRANCH   1  17
BRANCH   9  36
ATOM     36  C   LIG d   1       7.627  -2.892  -4.818  0.00  0.00     0.011 C 
ATOM     37  H   LIG d   1       7.294  -3.679  -4.141  0.00  0.00     0.045 H 
ATOM     38  H   LIG d   1       7.200  -3.059  -5.807  0.00  0.00     0.045 H 
ATOM     39  H   LIG d   1       8.714  -2.904  -4.885  0.00  0.00     0.045 H 
ENDBRANCH   9  36
TORSDOF 5
ENDMDL
MODEL 7
REMARK VINA RESULT:      -5.8      4.450      6.319
REMARK  5 active torsions:
REMARK  status: ('A' for Active; 'I' for Inactive)
REMARK    1  A    between atoms: C_1  and  C_2 
REMARK    2  A    between atoms: C_2  and  C_13 
REMARK    3  A    between atoms: N_3  and  C_4 
REMARK    4  A    between atoms: C_8  and  N_10 
REMARK    5  A    between atoms: N_21  and  C_24 
ROOT
ATOM      1  C   LIG d   1       4.533  -1.134  -6.717  0.00  0.00     0.052 A 
ATOM      2  C   LIG d   1       3.788  -0.179  -5.970  0.00  0.00     0.198 A 
ATOM      3  C   LIG d   1       4.001  -0.125  -4.513  0.00  0.00     0.046 A 
ATOM      4  C   LIG d   1       3.304   0.784  -3.716  0.00  0.00    -0.049 A 
ATOM      5  C   LIG d   1       3.525   0.809  -2.357  0.00  0.00    -0.061 A 
ATOM      6  C   LIG d   1       4.437  -0.064  -1.780  0.00  0.00    -0.060 A 
ATOM      7  C   LIG d   1       5.132  -0.967  -2.554  0.00  0.00    -0.037 A 
ATOM      8  C   LIG d   1       4.922  -1.009  -3.929  0.00  0.00     0.052 A 
ATOM      9  N   LIG d   1       5.611  -1.909  -4.717  0.00  0.00    -0.356 N 
ATOM     10  C   LIG d   1       5.424  -1.977  -6.056  0.00  0.00    -0.023 A 
ATOM     11  O   LIG d   1       6.123  -2.881  -6.770  0.00  0.00    -0.861 OA
ATOM     12  O   LIG d   1       2.998   0.570  -6.518  0.00  0.00    -0.286 OA
ATOM     13  H   LIG d   1       2.595   1.465  -4.164  0.00  0.00     0.062 H 
ATOM     14  H   LIG d   1       2.988   1.512  -1.739  0.00  0.00     0.062 H 
ATOM     15  H   LIG d   1       4.602  -0.035  -0.712  0.00  0.00     0.062 H 
ATOM     16  H   LIG d   1       5.838  -1.642  -2.094  0.00  0.00     0.064 H 
ENDROOT
BRANCH   1  17
ATOM     17  C   LIG d   1       4.363  -1.232  -8.167  0.00  0.00     0.051 C 
ATOM     18  N   LIG d   1       5.136  -0.542  -8.964  0.00  0.00    -0.252 NA
BRANCH  17  19
ATOM     19  C   LIG d   1       3.296  -2.128  -8.742  0.00  0.00    -0.022 C 
ATOM     20  H   LIG d   1       3.678  -2.621  -9.637  0.00  0.00     0.029 H 
ATOM     21  H   LIG d   1       3.018  -2.881  -8.004  0.00  0.00     0.029 H 
ATOM     22  H   LIG d   1       2.421  -1.532  -9.002  0.00  0.00     0.029 H 
ENDBRANCH  17  19
BRANCH  18  23
ATOM     23  C   LIG d   1       4.976  -0.634 -10.321  0.00  0.00     0.071 A 
ATOM     24  C   LIG d   1       5.698  -1.580 -11.050  0.00  0.00     0.041 A 
ATOM     25  C   LIG d   1       5.526  -1.671 -12.416  0.00  0.00     0.275 A 
ATOM     26  H   LIG d   1       6.385  -2.243 -10.546  0.00  0.00     0.071 H 
ATOM     27  C   LIG d   1       4.652  -0.818 -13.065  0.00  0.00     0.016 A 
ATOM     28  C   LIG d   1       3.938   0.126 -12.349  0.00  0.00    -0.053 A 
ATOM     29  H   LIG d   1       4.525  -0.891 -14.135  0.00  0.00     0.069 H 
ATOM     30  C   LIG d   1       4.094   0.224 -10.982  0.00  0.00    -0.036 A 
ATOM     31  H   LIG d   1       3.256   0.789 -12.862  0.00  0.00     0.062 H 
ATOM     32  H   LIG d   1       3.535   0.961 -10.425  0.00  0.00     0.064 H 
BRANCH  25  33
ATOM     33  N   LIG d   1       6.286  -2.679 -13.189  0.00  0.00     0.080 N 
ATOM     34  O   LIG d   1       6.425  -2.546 -14.384  0.00  0.00     0.041 OA
ATOM     35  O   LIG d   1       6.768  -3.635 -12.628  0.00  0.00    -0.576 OA
ENDBRANCH  25  33
ENDBRANCH  18  23
ENDBRANCH   1  17
BRANCH   9  36
ATOM     36  C   LIG d   1       6.567  -2.822  -4.086  0.00  0.00     0.011 C 
ATOM     37  H   LIG d   1       7.559  -2.658  -4.509  0.00  0.00     0.045 H 
ATOM     38  H   LIG d   1       6.595  -2.634  -3.013  0.00  0.00     0.045 H 
ATOM     39  H   LIG d   1       6.260  -3.852  -4.267  0.00  0.00     0.045 H 
ENDBRANCH   9  36
TORSDOF 5
ENDMDL
MODEL 8
REMARK VINA RESULT:      -5.7      3.827      7.066
REMARK  5 active torsions:
REMARK  status: ('A' for Active; 'I' for Inactive)
REMARK    1  A    between atoms: C_1  and  C_2 
REMARK    2  A    between atoms: C_2  and  C_13 
REMARK    3  A    between atoms: N_3  and  C_4 
REMARK    4  A    between atoms: C_8  and  N_10 
REMARK    5  A    between atoms: N_21  and  C_24 
ROOT
ATOM      1  C   LIG d   1       8.341   1.988  -5.418  0.00  0.00     0.052 A 
ATOM      2  C   LIG d   1       8.452   2.186  -6.823  0.00  0.00     0.198 A 
ATOM      3  C   LIG d   1       9.176   3.379  -7.297  0.00  0.00     0.046 A 
ATOM      4  C   LIG d   1       9.323   3.639  -8.659  0.00  0.00    -0.049 A 
ATOM      5  C   LIG d   1      10.005   4.762  -9.070  0.00  0.00    -0.061 A 
ATOM      6  C   LIG d   1      10.546   5.634  -8.134  0.00  0.00    -0.060 A 
ATOM      7  C   LIG d   1      10.409   5.390  -6.785  0.00  0.00    -0.037 A 
ATOM      8  C   LIG d   1       9.722   4.261  -6.350  0.00  0.00     0.052 A 
ATOM      9  N   LIG d   1       9.576   4.004  -5.001  0.00  0.00    -0.356 N 
ATOM     10  C   LIG d   1       8.909   2.917  -4.549  0.00  0.00    -0.023 A 
ATOM     11  O   LIG d   1       8.796   2.725  -3.219  0.00  0.00    -0.861 OA
ATOM     12  O   LIG d   1       7.962   1.394  -7.610  0.00  0.00    -0.286 OA
ATOM     13  H   LIG d   1       8.904   2.961  -9.389  0.00  0.00     0.062 H 
ATOM     14  H   LIG d   1      10.121   4.965 -10.124  0.00  0.00     0.062 H 
ATOM     15  H   LIG d   1      11.079   6.512  -8.469  0.00  0.00     0.062 H 
ATOM     16  H   LIG d   1      10.833   6.075  -6.067  0.00  0.00     0.064 H 
ENDROOT
BRANCH   1  17
ATOM     17  C   LIG d   1       7.633   0.821  -4.890  0.00  0.00     0.051 C 
ATOM     18  N   LIG d   1       6.367   0.912  -4.577  0.00  0.00    -0.252 NA
BRANCH  17  19
ATOM     19  C   LIG d   1       8.362  -0.485  -4.709  0.00  0.00    -0.022 C 
ATOM     20  H   LIG d   1       8.093  -1.167  -5.516  0.00  0.00     0.029 H 
ATOM     21  H   LIG d   1       9.437  -0.307  -4.728  0.00  0.00     0.029 H 
ATOM     22  H   LIG d   1       8.083  -0.927  -3.753  0.00  0.00     0.029 H 
ENDBRANCH  17  19
BRANCH  18  23
ATOM     23  C   LIG d   1       5.704  -0.179  -4.083  0.00  0.00     0.071 A 
ATOM     24  C   LIG d   1       5.430  -1.268  -4.912  0.00  0.00     0.041 A 
ATOM     25  C   LIG d   1       4.768  -2.367  -4.406  0.00  0.00     0.275 A 
ATOM     26  H   LIG d   1       5.739  -1.252  -5.947  0.00  0.00     0.071 H 
ATOM     27  C   LIG d   1       4.364  -2.387  -3.083  0.00  0.00     0.016 A 
ATOM     28  C   LIG d   1       4.627  -1.308  -2.257  0.00  0.00    -0.053 A 
ATOM     29  H   LIG d   1       3.842  -3.248  -2.693  0.00  0.00     0.069 H 
ATOM     30  C   LIG d   1       5.294  -0.205  -2.748  0.00  0.00    -0.036 A 
ATOM     31  H   LIG d   1       4.310  -1.330  -1.225  0.00  0.00     0.062 H 
ATOM     32  H   LIG d   1       5.500   0.635  -2.102  0.00  0.00     0.064 H 
BRANCH  25  33
ATOM     33  N   LIG d   1       4.483  -3.525  -5.283  0.00  0.00     0.080 N 
ATOM     34  O   LIG d   1       4.455  -3.381  -6.484  0.00  0.00     0.041 OA
ATOM     35  O   LIG d   1       4.277  -4.614  -4.800  0.00  0.00    -0.576 OA
ENDBRANCH  25  33
ENDBRANCH  18  23
ENDBRANCH   1  17
BRANCH   9  36
ATOM     36  C   LIG d   1      10.154   4.939  -4.032  0.00  0.00     0.011 C 
ATOM     37  H   LIG d   1      10.125   5.949  -4.440  0.00  0.00     0.045 H 
ATOM     38  H   LIG d   1       9.579   4.905  -3.107  0.00  0.00     0.045 H 
ATOM     39  H   LIG d   1      11.187   4.657  -3.828  0.00  0.00     0.045 H 
ENDBRANCH   9  36
TORSDOF 5
ENDMDL
MODEL 9
REMARK VINA RESULT:      -5.7      4.377      7.982
REMARK  5 active torsions:
REMARK  status: ('A' for Active; 'I' for Inactive)
REMARK    1  A    between atoms: C_1  and  C_2 
REMARK    2  A    between atoms: C_2  and  C_13 
REMARK    3  A    between atoms: N_3  and  C_4 
REMARK    4  A    between atoms: C_8  and  N_10 
REMARK    5  A    between atoms: N_21  and  C_24 
ROOT
ATOM      1  C   LIG d   1       4.047  -1.719  -8.714  0.00  0.00     0.052 A 
ATOM      2  C   LIG d   1       2.858  -1.070  -9.153  0.00  0.00     0.198 A 
ATOM      3  C   LIG d   1       2.257  -1.517 -10.423  0.00  0.00     0.046 A 
ATOM      4  C   LIG d   1       1.094  -0.926 -10.916  0.00  0.00    -0.049 A 
ATOM      5  C   LIG d   1       0.558  -1.366 -12.106  0.00  0.00    -0.061 A 
ATOM      6  C   LIG d   1       1.169  -2.392 -12.813  0.00  0.00    -0.060 A 
ATOM      7  C   LIG d   1       2.319  -2.985 -12.338  0.00  0.00    -0.037 A 
ATOM      8  C   LIG d   1       2.877  -2.554 -11.138  0.00  0.00     0.052 A 
ATOM      9  N   LIG d   1       4.029  -3.138 -10.650  0.00  0.00    -0.356 N 
ATOM     10  C   LIG d   1       4.598  -2.737  -9.489  0.00  0.00    -0.023 A 
ATOM     11  O   LIG d   1       5.725  -3.343  -9.069  0.00  0.00    -0.861 OA
ATOM     12  O   LIG d   1       2.354  -0.173  -8.500  0.00  0.00    -0.286 OA
ATOM     13  H   LIG d   1       0.616  -0.128 -10.367  0.00  0.00     0.062 H 
ATOM     14  H   LIG d   1      -0.343  -0.912 -12.490  0.00  0.00     0.062 H 
ATOM     15  H   LIG d   1       0.739  -2.729 -13.745  0.00  0.00     0.062 H 
ATOM     16  H   LIG d   1       2.786  -3.782 -12.896  0.00  0.00     0.064 H 
ENDROOT
BRANCH   1  17
ATOM     17  C   LIG d   1       4.687  -1.317  -7.461  0.00  0.00     0.051 C 
ATOM     18  N   LIG d   1       4.358  -1.905  -6.341  0.00  0.00    -0.252 NA
BRANCH  17  19
ATOM     19  C   LIG d   1       5.725  -0.224  -7.462  0.00  0.00    -0.022 C 
ATOM     20  H   LIG d   1       6.414  -0.378  -8.292  0.00  0.00     0.029 H 
ATOM     21  H   LIG d   1       5.234   0.743  -7.572  0.00  0.00     0.029 H 
ATOM     22  H   LIG d   1       6.278  -0.247  -6.523  0.00  0.00     0.029 H 
ENDBRANCH  17  19
BRANCH  18  23
ATOM     23  C   LIG d   1       4.956  -1.529  -5.169  0.00  0.00     0.071 A 
ATOM     24  C   LIG d   1       4.494  -0.410  -4.473  0.00  0.00     0.041 A 
ATOM     25  C   LIG d   1       5.098  -0.041  -3.288  0.00  0.00     0.275 A 
ATOM     26  H   LIG d   1       3.663   0.162  -4.858  0.00  0.00     0.071 H 
ATOM     27  C   LIG d   1       6.167  -0.768  -2.797  0.00  0.00     0.016 A 
ATOM     28  C   LIG d   1       6.634  -1.874  -3.485  0.00  0.00    -0.053 A 
ATOM     29  H   LIG d   1       6.639  -0.472  -1.872  0.00  0.00     0.069 H 
ATOM     30  C   LIG d   1       6.036  -2.259  -4.667  0.00  0.00    -0.036 A 
ATOM     31  H   LIG d   1       7.469  -2.438  -3.096  0.00  0.00     0.062 H 
ATOM     32  H   LIG d   1       6.401  -3.123  -5.202  0.00  0.00     0.064 H 
BRANCH  25  33
ATOM     33  N   LIG d   1       4.604   1.141  -2.546  0.00  0.00     0.080 N 
ATOM     34  O   LIG d   1       4.110   2.067  -3.146  0.00  0.00     0.041 OA
ATOM     35  O   LIG d   1       4.695   1.180  -1.341  0.00  0.00    -0.576 OA
ENDBRANCH  25  33
ENDBRANCH  18  23
ENDBRANCH   1  17
BRANCH   9  36
ATOM     36  C   LIG d   1       4.658  -4.219 -11.413  0.00  0.00     0.011 C 
ATOM     37  H   LIG d   1       3.936  -4.634 -12.117  0.00  0.00     0.045 H 
ATOM     38  H   LIG d   1       5.514  -3.826 -11.962  0.00  0.00     0.045 H 
ATOM     39  H   LIG d   1       4.991  -5.000 -10.730  0.00  0.00     0.045 H 
ENDBRANCH   9  36
TORSDOF 5
ENDMDL
