MODEL 1
REMARK VINA RESULT:      -5.7      0.000      0.000
REMARK  17 active torsions:
REMARK  status: ('A' for Active; 'I' for Inactive)
REMARK    1  A    between atoms: C_1  and  C_2 
REMARK    2  A    between atoms: C_2  and  C_3 
REMARK    3  A    between atoms: C_3  and  C_4 
REMARK    4  A    between atoms: C_4  and  C_5 
REMARK    5  A    between atoms: C_5  and  C_6 
REMARK    6  A    between atoms: C_8  and  C_11 
REMARK    7  A    between atoms: C_11  and  C_12 
REMARK    8  A    between atoms: C_13  and  C_14 
REMARK    9  A    between atoms: C_14  and  C_15 
REMARK   10  A    between atoms: C_15  and  C_16 
REMARK   11  A    between atoms: C_16  and  C_17 
REMARK   12  A    between atoms: C_17  and  C_18 
REMARK   13  A    between atoms: C_18  and  C_19 
REMARK   14  A    between atoms: C_19  and  C_20 
REMARK   15  A    between atoms: C_20  and  C_21 
REMARK   16  A    between atoms: C_21  and  C_22 
REMARK   17  A    between atoms: C_22  and  C_23 
ROOT
ATOM      1  C   LIG d   1       3.358   1.099  -2.541  0.00  0.00    -0.035 C 
ATOM      2  H   LIG d   1       3.584   1.572  -3.495  0.00  0.00     0.031 H 
ATOM      3  H   LIG d   1       2.656   1.719  -1.985  0.00  0.00     0.031 H 
ENDROOT
BRANCH   1   4
ATOM      4  C   LIG d   1       2.746  -0.257  -2.785  0.00  0.00    -0.088 C 
ATOM      5  C   LIG d   1       2.402  -0.611  -3.999  0.00  0.00    -0.085 C 
ATOM      6  H   LIG d   1       1.854  -1.528  -4.159  0.00  0.00     0.057 H 
ATOM      7  H   LIG d   1       2.591  -0.937  -1.960  0.00  0.00     0.057 H 
BRANCH   5   8
ATOM      8  C   LIG d   1       2.770   0.261  -5.171  0.00  0.00    -0.006 C 
ATOM      9  H   LIG d   1       3.051   1.252  -4.813  0.00  0.00     0.033 H 
ATOM     10  H   LIG d   1       1.915   0.348  -5.842  0.00  0.00     0.033 H 
BRANCH   8  11
ATOM     11  C   LIG d   1       3.948  -0.363  -5.921  0.00  0.00     0.089 A 
ATOM     12  C   LIG d   1       3.754  -0.698  -7.401  0.00  0.00     0.086 A 
ATOM     13  H   LIG d   1       4.267  -1.575  -7.796  0.00  0.00     0.062 H 
ATOM     14  O   LIG d   1       4.555   0.402  -6.965  0.00  0.00    -0.368 OA
ATOM     15  H   LIG d   1       4.591  -1.017  -5.332  0.00  0.00     0.062 H 
BRANCH  12  16
ATOM     16  C   LIG d   1       2.395  -0.386  -8.031  0.00  0.00    -0.024 C 
ATOM     17  H   LIG d   1       2.097  -1.210  -8.679  0.00  0.00     0.029 H 
ATOM     18  H   LIG d   1       1.651  -0.256  -7.243  0.00  0.00     0.029 H 
BRANCH  16  19
ATOM     19  C   LIG d   1       2.496   0.899  -8.853  0.00  0.00    -0.051 C 
ATOM     20  H   LIG d   1       1.495   1.290  -9.042  0.00  0.00     0.027 H 
ATOM     21  H   LIG d   1       3.077   1.639  -8.302  0.00  0.00     0.027 H 
BRANCH  19  22
ATOM     22  C   LIG d   1       3.185   0.599 -10.186  0.00  0.00    -0.053 C 
ATOM     23  H   LIG d   1       3.555  -0.425 -10.181  0.00  0.00     0.026 H 
ATOM     24  H   LIG d   1       2.471   0.724 -11.001  0.00  0.00     0.026 H 
BRANCH  22  25
ATOM     25  C   LIG d   1       4.356   1.564 -10.383  0.00  0.00    -0.056 C 
ATOM     26  H   LIG d   1       5.294   1.041 -10.198  0.00  0.00     0.026 H 
ATOM     27  H   LIG d   1       4.346   1.944 -11.405  0.00  0.00     0.026 H 
BRANCH  25  28
ATOM     28  C   LIG d   1       4.221   2.733  -9.405  0.00  0.00    -0.065 C 
ATOM     29  H   LIG d   1       5.020   2.679  -8.662  0.00  0.00     0.023 H 
ATOM     30  H   LIG d   1       4.297   3.674  -9.949  0.00  0.00     0.023 H 
ATOM     31  H   LIG d   1       3.255   2.678  -8.904  0.00  0.00     0.023 H 
ENDBRANCH  25  28
ENDBRANCH  22  25
ENDBRANCH  19  22
ENDBRANCH  16  19
ENDBRANCH  12  16
ENDBRANCH   8  11
ENDBRANCH   5   8
ENDBRANCH   1   4
BRANCH   1  32
ATOM     32  C   LIG d   1       4.648   0.938  -1.734  0.00  0.00    -0.050 C 
ATOM     33  H   LIG d   1       5.202   1.876  -1.744  0.00  0.00     0.027 H 
ATOM     34  H   LIG d   1       4.402   0.672  -0.706  0.00  0.00     0.027 H 
BRANCH  32  35
ATOM     35  C   LIG d   1       5.504  -0.167  -2.356  0.00  0.00    -0.053 C 
ATOM     36  H   LIG d   1       6.070  -0.673  -1.572  0.00  0.00     0.026 H 
ATOM     37  H   LIG d   1       4.859  -0.887  -2.860  0.00  0.00     0.026 H 
BRANCH  35  38
ATOM     38  C   LIG d   1       6.472   0.447  -3.369  0.00  0.00    -0.053 C 
ATOM     39  H   LIG d   1       5.910   1.010  -4.113  0.00  0.00     0.026 H 
ATOM     40  H   LIG d   1       7.163   1.115  -2.853  0.00  0.00     0.026 H 
BRANCH  38  41
ATOM     41  C   LIG d   1       7.260  -0.667  -4.061  0.00  0.00    -0.053 C 
ATOM     42  H   LIG d   1       7.023  -0.673  -5.124  0.00  0.00     0.026 H 
ATOM     43  H   LIG d   1       8.328  -0.493  -3.928  0.00  0.00     0.026 H 
BRANCH  41  44
ATOM     44  C   LIG d   1       6.883  -2.016  -3.445  0.00  0.00    -0.053 C 
ATOM     45  H   LIG d   1       7.390  -2.134  -2.488  0.00  0.00     0.026 H 
ATOM     46  H   LIG d   1       5.804  -2.056  -3.293  0.00  0.00     0.026 H 
BRANCH  44  47
ATOM     47  C   LIG d   1       7.307  -3.143  -4.389  0.00  0.00    -0.053 C 
ATOM     48  H   LIG d   1       8.279  -2.908  -4.822  0.00  0.00     0.026 H 
ATOM     49  H   LIG d   1       7.373  -4.078  -3.833  0.00  0.00     0.026 H 
BRANCH  47  50
ATOM     50  C   LIG d   1       6.273  -3.287  -5.508  0.00  0.00    -0.048 C 
ATOM     51  H   LIG d   1       6.103  -2.316  -5.974  0.00  0.00     0.027 H 
ATOM     52  H   LIG d   1       6.642  -3.989  -6.256  0.00  0.00     0.027 H 
BRANCH  50  53
ATOM     53  C   LIG d   1       4.959  -3.809  -4.924  0.00  0.00    -0.013 C 
ATOM     54  H   LIG d   1       5.060  -3.921  -3.844  0.00  0.00     0.033 H 
ATOM     55  H   LIG d   1       4.158  -3.101  -5.141  0.00  0.00     0.033 H 
BRANCH  53  56
ATOM     56  C   LIG d   1       4.629  -5.144  -5.540  0.00  0.00     0.042 C 
ATOM     57  O   LIG d   1       5.447  -6.033  -5.528  0.00  0.00    -0.550 OA
ATOM     58  O   LIG d   1       3.426  -5.345  -6.102  0.00  0.00    -0.550 OA
ENDBRANCH  53  56
ENDBRANCH  50  53
ENDBRANCH  47  50
ENDBRANCH  44  47
ENDBRANCH  41  44
ENDBRANCH  38  41
ENDBRANCH  35  38
ENDBRANCH  32  35
ENDBRANCH   1  32
TORSDOF 17
ENDMDL
MODEL 2
REMARK VINA RESULT:      -5.4      2.108      6.783
REMARK  17 active torsions:
REMARK  status: ('A' for Active; 'I' for Inactive)
REMARK    1  A    between atoms: C_1  and  C_2 
REMARK    2  A    between atoms: C_2  and  C_3 
REMARK    3  A    between atoms: C_3  and  C_4 
REMARK    4  A    between atoms: C_4  and  C_5 
REMARK    5  A    between atoms: C_5  and  C_6 
REMARK    6  A    between atoms: C_8  and  C_11 
REMARK    7  A    between atoms: C_11  and  C_12 
REMARK    8  A    between atoms: C_13  and  C_14 
REMARK    9  A    between atoms: C_14  and  C_15 
REMARK   10  A    between atoms: C_15  and  C_16 
REMARK   11  A    between atoms: C_16  and  C_17 
REMARK   12  A    between atoms: C_17  and  C_18 
REMARK   13  A    between atoms: C_18  and  C_19 
REMARK   14  A    between atoms: C_19  and  C_20 
REMARK   15  A    between atoms: C_20  and  C_21 
REMARK   16  A    between atoms: C_21  and  C_22 
REMARK   17  A    between atoms: C_22  and  C_23 
ROOT
ATOM      1  C   LIG d   1       4.109  -0.502  -6.200  0.00  0.00    -0.035 C 
ATOM      2  H   LIG d   1       3.788  -1.003  -5.288  0.00  0.00     0.031 H 
ATOM      3  H   LIG d   1       4.942   0.163  -5.975  0.00  0.00     0.031 H 
ENDROOT
BRANCH   1   4
ATOM      4  C   LIG d   1       4.546  -1.531  -7.211  0.00  0.00    -0.088 C 
ATOM      5  C   LIG d   1       5.807  -1.876  -7.290  0.00  0.00    -0.085 C 
ATOM      6  H   LIG d   1       6.142  -2.519  -8.091  0.00  0.00     0.057 H 
ATOM      7  H   LIG d   1       3.820  -1.983  -7.870  0.00  0.00     0.057 H 
BRANCH   5   8
ATOM      8  C   LIG d   1       6.792  -1.377  -6.264  0.00  0.00    -0.006 C 
ATOM      9  H   LIG d   1       6.284  -0.709  -5.568  0.00  0.00     0.033 H 
ATOM     10  H   LIG d   1       7.595  -0.836  -6.764  0.00  0.00     0.033 H 
BRANCH   8  11
ATOM     11  C   LIG d   1       7.375  -2.564  -5.497  0.00  0.00     0.089 A 
ATOM     12  C   LIG d   1       7.123  -2.633  -3.990  0.00  0.00     0.086 A 
ATOM     13  H   LIG d   1       7.903  -3.064  -3.362  0.00  0.00     0.062 H 
ATOM     14  O   LIG d   1       6.461  -3.497  -4.916  0.00  0.00    -0.368 OA
ATOM     15  H   LIG d   1       8.324  -2.949  -5.871  0.00  0.00     0.062 H 
BRANCH  12  16
ATOM     16  C   LIG d   1       6.303  -1.509  -3.351  0.00  0.00    -0.024 C 
ATOM     17  H   LIG d   1       6.810  -1.155  -2.453  0.00  0.00     0.029 H 
ATOM     18  H   LIG d   1       6.202  -0.686  -4.060  0.00  0.00     0.029 H 
BRANCH  16  19
ATOM     19  C   LIG d   1       4.916  -2.036  -2.981  0.00  0.00    -0.051 C 
ATOM     20  H   LIG d   1       4.286  -2.058  -3.871  0.00  0.00     0.027 H 
ATOM     21  H   LIG d   1       5.006  -3.044  -2.575  0.00  0.00     0.027 H 
BRANCH  19  22
ATOM     22  C   LIG d   1       4.285  -1.119  -1.931  0.00  0.00    -0.053 C 
ATOM     23  H   LIG d   1       3.738  -1.720  -1.206  0.00  0.00     0.026 H 
ATOM     24  H   LIG d   1       5.069  -0.557  -1.421  0.00  0.00     0.026 H 
BRANCH  22  25
ATOM     25  C   LIG d   1       3.324  -0.145  -2.616  0.00  0.00    -0.056 C 
ATOM     26  H   LIG d   1       3.342  -0.313  -3.693  0.00  0.00     0.026 H 
ATOM     27  H   LIG d   1       2.314  -0.306  -2.239  0.00  0.00     0.026 H 
BRANCH  25  28
ATOM     28  C   LIG d   1       3.756   1.292  -2.317  0.00  0.00    -0.065 C 
ATOM     29  H   LIG d   1       4.236   1.717  -3.200  0.00  0.00     0.023 H 
ATOM     30  H   LIG d   1       2.882   1.888  -2.056  0.00  0.00     0.023 H 
ATOM     31  H   LIG d   1       4.460   1.293  -1.485  0.00  0.00     0.023 H 
ENDBRANCH  25  28
ENDBRANCH  22  25
ENDBRANCH  19  22
ENDBRANCH  16  19
ENDBRANCH  12  16
ENDBRANCH   8  11
ENDBRANCH   5   8
ENDBRANCH   1   4
BRANCH   1  32
ATOM     32  C   LIG d   1       2.946   0.312  -6.771  0.00  0.00    -0.050 C 
ATOM     33  H   LIG d   1       2.127   0.330  -6.052  0.00  0.00     0.027 H 
ATOM     34  H   LIG d   1       3.278   1.331  -6.968  0.00  0.00     0.027 H 
BRANCH  32  35
ATOM     35  C   LIG d   1       2.466  -0.329  -8.075  0.00  0.00    -0.053 C 
ATOM     36  H   LIG d   1       3.172  -1.102  -8.381  0.00  0.00     0.026 H 
ATOM     37  H   LIG d   1       1.484  -0.775  -7.919  0.00  0.00     0.026 H 
BRANCH  35  38
ATOM     38  C   LIG d   1       2.374   0.740  -9.165  0.00  0.00    -0.053 C 
ATOM     39  H   LIG d   1       2.996   0.450 -10.012  0.00  0.00     0.026 H 
ATOM     40  H   LIG d   1       1.338   0.838  -9.491  0.00  0.00     0.026 H 
BRANCH  38  41
ATOM     41  C   LIG d   1       2.864   2.079  -8.609  0.00  0.00    -0.053 C 
ATOM     42  H   LIG d   1       2.093   2.836  -8.755  0.00  0.00     0.026 H 
ATOM     43  H   LIG d   1       3.074   1.976  -7.545  0.00  0.00     0.026 H 
BRANCH  41  44
ATOM     44  C   LIG d   1       4.139   2.500  -9.343  0.00  0.00    -0.053 C 
ATOM     45  H   LIG d   1       3.933   3.374  -9.959  0.00  0.00     0.026 H 
ATOM     46  H   LIG d   1       4.914   2.742  -8.615  0.00  0.00     0.026 H 
BRANCH  44  47
ATOM     47  C   LIG d   1       4.617   1.350 -10.233  0.00  0.00    -0.053 C 
ATOM     48  H   LIG d   1       3.924   0.513 -10.148  0.00  0.00     0.026 H 
ATOM     49  H   LIG d   1       4.658   1.685 -11.268  0.00  0.00     0.026 H 
BRANCH  47  50
ATOM     50  C   LIG d   1       6.011   0.904  -9.785  0.00  0.00    -0.048 C 
ATOM     51  H   LIG d   1       6.009  -0.172  -9.609  0.00  0.00     0.027 H 
ATOM     52  H   LIG d   1       6.736   1.144 -10.562  0.00  0.00     0.027 H 
BRANCH  50  53
ATOM     53  C   LIG d   1       6.388   1.632  -8.493  0.00  0.00    -0.013 C 
ATOM     54  H   LIG d   1       5.700   2.461  -8.328  0.00  0.00     0.033 H 
ATOM     55  H   LIG d   1       6.328   0.937  -7.655  0.00  0.00     0.033 H 
BRANCH  53  56
ATOM     56  C   LIG d   1       7.795   2.161  -8.607  0.00  0.00     0.042 C 
ATOM     57  O   LIG d   1       8.226   2.503  -9.682  0.00  0.00    -0.550 OA
ATOM     58  O   LIG d   1       8.568   2.253  -7.513  0.00  0.00    -0.550 OA
ENDBRANCH  53  56
ENDBRANCH  50  53
ENDBRANCH  47  50
ENDBRANCH  44  47
ENDBRANCH  41  44
ENDBRANCH  38  41
ENDBRANCH  35  38
ENDBRANCH  32  35
ENDBRANCH   1  32
TORSDOF 17
ENDMDL
MODEL 3
REMARK VINA RESULT:      -5.4      1.974      5.676
REMARK  17 active torsions:
REMARK  status: ('A' for Active; 'I' for Inactive)
REMARK    1  A    between atoms: C_1  and  C_2 
REMARK    2  A    between atoms: C_2  and  C_3 
REMARK    3  A    between atoms: C_3  and  C_4 
REMARK    4  A    between atoms: C_4  and  C_5 
REMARK    5  A    between atoms: C_5  and  C_6 
REMARK    6  A    between atoms: C_8  and  C_11 
REMARK    7  A    between atoms: C_11  and  C_12 
REMARK    8  A    between atoms: C_13  and  C_14 
REMARK    9  A    between atoms: C_14  and  C_15 
REMARK   10  A    between atoms: C_15  and  C_16 
REMARK   11  A    between atoms: C_16  and  C_17 
REMARK   12  A    between atoms: C_17  and  C_18 
REMARK   13  A    between atoms: C_18  and  C_19 
REMARK   14  A    between atoms: C_19  and  C_20 
REMARK   15  A    between atoms: C_20  and  C_21 
REMARK   16  A    between atoms: C_21  and  C_22 
REMARK   17  A    between atoms: C_22  and  C_23 
ROOT
ATOM      1  C   LIG d   1       5.081  -0.235  -2.372  0.00  0.00    -0.035 C 
ATOM      2  H   LIG d   1       6.094  -0.117  -1.989  0.00  0.00     0.031 H 
ATOM      3  H   LIG d   1       5.105  -0.261  -3.461  0.00  0.00     0.031 H 
ENDROOT
BRANCH   1   4
ATOM      4  C   LIG d   1       4.494  -1.521  -1.850  0.00  0.00    -0.088 C 
ATOM      5  C   LIG d   1       4.078  -2.438  -2.689  0.00  0.00    -0.085 C 
ATOM      6  H   LIG d   1       3.548  -3.305  -2.322  0.00  0.00     0.057 H 
ATOM      7  H   LIG d   1       4.416  -1.687  -0.786  0.00  0.00     0.057 H 
BRANCH   5   8
ATOM      8  C   LIG d   1       4.341  -2.285  -4.165  0.00  0.00    -0.006 C 
ATOM      9  H   LIG d   1       4.628  -1.255  -4.378  0.00  0.00     0.033 H 
ATOM     10  H   LIG d   1       3.437  -2.531  -4.722  0.00  0.00     0.033 H 
BRANCH   8  11
ATOM     11  C   LIG d   1       5.471  -3.227  -4.583  0.00  0.00     0.089 A 
ATOM     12  C   LIG d   1       6.645  -2.630  -5.360  0.00  0.00     0.086 A 
ATOM     13  H   LIG d   1       7.128  -3.255  -6.112  0.00  0.00     0.062 H 
ATOM     14  O   LIG d   1       6.757  -3.028  -3.992  0.00  0.00    -0.368 OA
ATOM     15  H   LIG d   1       5.173  -4.249  -4.818  0.00  0.00     0.062 H 
BRANCH  12  16
ATOM     16  C   LIG d   1       6.610  -1.131  -5.667  0.00  0.00    -0.024 C 
ATOM     17  H   LIG d   1       6.592  -0.982  -6.747  0.00  0.00     0.029 H 
ATOM     18  H   LIG d   1       5.716  -0.691  -5.224  0.00  0.00     0.029 H 
BRANCH  16  19
ATOM     19  C   LIG d   1       7.852  -0.461  -5.080  0.00  0.00    -0.051 C 
ATOM     20  H   LIG d   1       7.928  -0.700  -4.018  0.00  0.00     0.027 H 
ATOM     21  H   LIG d   1       8.741  -0.823  -5.597  0.00  0.00     0.027 H 
BRANCH  19  22
ATOM     22  C   LIG d   1       7.745   1.056  -5.255  0.00  0.00    -0.053 C 
ATOM     23  H   LIG d   1       8.608   1.419  -5.812  0.00  0.00     0.026 H 
ATOM     24  H   LIG d   1       6.832   1.295  -5.802  0.00  0.00     0.026 H 
BRANCH  22  25
ATOM     25  C   LIG d   1       7.706   1.726  -3.880  0.00  0.00    -0.056 C 
ATOM     26  H   LIG d   1       6.795   2.317  -3.789  0.00  0.00     0.026 H 
ATOM     27  H   LIG d   1       7.723   0.962  -3.103  0.00  0.00     0.026 H 
BRANCH  25  28
ATOM     28  C   LIG d   1       8.924   2.639  -3.724  0.00  0.00    -0.065 C 
ATOM     29  H   LIG d   1       9.578   2.240  -2.947  0.00  0.00     0.023 H 
ATOM     30  H   LIG d   1       9.468   2.684  -4.667  0.00  0.00     0.023 H 
ATOM     31  H   LIG d   1       8.595   3.639  -3.443  0.00  0.00     0.023 H 
ENDBRANCH  25  28
ENDBRANCH  22  25
ENDBRANCH  19  22
ENDBRANCH  16  19
ENDBRANCH  12  16
ENDBRANCH   8  11
ENDBRANCH   5   8
ENDBRANCH   1   4
BRANCH   1  32
ATOM     32  C   LIG d   1       4.222   0.943  -1.908  0.00  0.00    -0.050 C 
ATOM     33  H   LIG d   1       3.388   0.572  -1.311  0.00  0.00     0.027 H 
ATOM     34  H   LIG d   1       4.827   1.620  -1.306  0.00  0.00     0.027 H 
BRANCH  32  35
ATOM     35  C   LIG d   1       3.680   1.691  -3.128  0.00  0.00    -0.053 C 
ATOM     36  H   LIG d   1       3.121   2.567  -2.798  0.00  0.00     0.026 H 
ATOM     37  H   LIG d   1       4.512   2.006  -3.759  0.00  0.00     0.026 H 
BRANCH  35  38
ATOM     38  C   LIG d   1       2.758   0.767  -3.926  0.00  0.00    -0.053 C 
ATOM     39  H   LIG d   1       3.173  -0.241  -3.936  0.00  0.00     0.026 H 
ATOM     40  H   LIG d   1       1.772   0.749  -3.461  0.00  0.00     0.026 H 
BRANCH  38  41
ATOM     41  C   LIG d   1       2.636   1.283  -5.361  0.00  0.00    -0.053 C 
ATOM     42  H   LIG d   1       1.659   1.746  -5.498  0.00  0.00     0.026 H 
ATOM     43  H   LIG d   1       3.417   2.019  -5.550  0.00  0.00     0.026 H 
BRANCH  41  44
ATOM     44  C   LIG d   1       2.790   0.115  -6.337  0.00  0.00    -0.053 C 
ATOM     45  H   LIG d   1       3.320  -0.701  -5.848  0.00  0.00     0.026 H 
ATOM     46  H   LIG d   1       1.804  -0.228  -6.651  0.00  0.00     0.026 H 
BRANCH  44  47
ATOM     47  C   LIG d   1       3.583   0.576  -7.562  0.00  0.00    -0.053 C 
ATOM     48  H   LIG d   1       4.570   0.917  -7.249  0.00  0.00     0.026 H 
ATOM     49  H   LIG d   1       3.691  -0.254  -8.259  0.00  0.00     0.026 H 
BRANCH  47  50
ATOM     50  C   LIG d   1       2.841   1.725  -8.247  0.00  0.00    -0.048 C 
ATOM     51  H   LIG d   1       2.044   1.322  -8.873  0.00  0.00     0.027 H 
ATOM     52  H   LIG d   1       2.411   2.382  -7.492  0.00  0.00     0.027 H 
BRANCH  50  53
ATOM     53  C   LIG d   1       3.819   2.519  -9.116  0.00  0.00    -0.013 C 
ATOM     54  H   LIG d   1       3.289   3.336  -9.606  0.00  0.00     0.033 H 
ATOM     55  H   LIG d   1       4.614   2.925  -8.490  0.00  0.00     0.033 H 
BRANCH  53  56
ATOM     56  C   LIG d   1       4.416   1.610 -10.159  0.00  0.00     0.042 C 
ATOM     57  O   LIG d   1       3.719   1.153 -11.033  0.00  0.00    -0.550 OA
ATOM     58  O   LIG d   1       5.724   1.309 -10.117  0.00  0.00    -0.550 OA
ENDBRANCH  53  56
ENDBRANCH  50  53
ENDBRANCH  47  50
ENDBRANCH  44  47
ENDBRANCH  41  44
ENDBRANCH  38  41
ENDBRANCH  35  38
ENDBRANCH  32  35
ENDBRANCH   1  32
TORSDOF 17
ENDMDL
MODEL 4
REMARK VINA RESULT:      -5.3      1.535      2.908
REMARK  17 active torsions:
REMARK  status: ('A' for Active; 'I' for Inactive)
REMARK    1  A    between atoms: C_1  and  C_2 
REMARK    2  A    between atoms: C_2  and  C_3 
REMARK    3  A    between atoms: C_3  and  C_4 
REMARK    4  A    between atoms: C_4  and  C_5 
REMARK    5  A    between atoms: C_5  and  C_6 
REMARK    6  A    between atoms: C_8  and  C_11 
REMARK    7  A    between atoms: C_11  and  C_12 
REMARK    8  A    between atoms: C_13  and  C_14 
REMARK    9  A    between atoms: C_14  and  C_15 
REMARK   10  A    between atoms: C_15  and  C_16 
REMARK   11  A    between atoms: C_16  and  C_17 
REMARK   12  A    between atoms: C_17  and  C_18 
REMARK   13  A    between atoms: C_18  and  C_19 
REMARK   14  A    between atoms: C_19  and  C_20 
REMARK   15  A    between atoms: C_20  and  C_21 
REMARK   16  A    between atoms: C_21  and  C_22 
REMARK   17  A    between atoms: C_22  and  C_23 
ROOT
ATOM      1  C   LIG d   1       2.748   0.241  -6.145  0.00  0.00    -0.035 C 
ATOM      2  H   LIG d   1       2.723   1.290  -6.434  0.00  0.00     0.031 H 
ATOM      3  H   LIG d   1       2.039  -0.321  -6.752  0.00  0.00     0.031 H 
ENDROOT
BRANCH   1   4
ATOM      4  C   LIG d   1       4.136  -0.306  -6.358  0.00  0.00    -0.088 C 
ATOM      5  C   LIG d   1       4.359  -1.171  -7.317  0.00  0.00    -0.085 C 
ATOM      6  H   LIG d   1       5.321  -1.655  -7.395  0.00  0.00     0.057 H 
ATOM      7  H   LIG d   1       4.947   0.014  -5.721  0.00  0.00     0.057 H 
BRANCH   5   8
ATOM      8  C   LIG d   1       3.272  -1.489  -8.312  0.00  0.00    -0.006 C 
ATOM      9  H   LIG d   1       2.895  -0.564  -8.747  0.00  0.00     0.033 H 
ATOM     10  H   LIG d   1       2.459  -2.010  -7.806  0.00  0.00     0.033 H 
BRANCH   8  11
ATOM     11  C   LIG d   1       3.839  -2.380  -9.419  0.00  0.00     0.089 A 
ATOM     12  C   LIG d   1       3.757  -1.867 -10.858  0.00  0.00     0.086 A 
ATOM     13  H   LIG d   1       3.611  -2.600 -11.651  0.00  0.00     0.062 H 
ATOM     14  O   LIG d   1       4.986  -1.911 -10.130  0.00  0.00    -0.368 OA
ATOM     15  H   LIG d   1       3.747  -3.454  -9.256  0.00  0.00     0.062 H 
BRANCH  12  16
ATOM     16  C   LIG d   1       3.114  -0.499 -11.092  0.00  0.00    -0.024 C 
ATOM     17  H   LIG d   1       2.401  -0.568 -11.914  0.00  0.00     0.029 H 
ATOM     18  H   LIG d   1       2.596  -0.181 -10.187  0.00  0.00     0.029 H 
BRANCH  16  19
ATOM     19  C   LIG d   1       4.198   0.521 -11.443  0.00  0.00    -0.051 C 
ATOM     20  H   LIG d   1       5.079   0.001 -11.823  0.00  0.00     0.027 H 
ATOM     21  H   LIG d   1       3.823   1.203 -12.207  0.00  0.00     0.027 H 
BRANCH  19  22
ATOM     22  C   LIG d   1       4.576   1.316 -10.192  0.00  0.00    -0.053 C 
ATOM     23  H   LIG d   1       4.547   0.660  -9.322  0.00  0.00     0.026 H 
ATOM     24  H   LIG d   1       5.582   1.721 -10.309  0.00  0.00     0.026 H 
BRANCH  22  25
ATOM     25  C   LIG d   1       3.584   2.465  -9.998  0.00  0.00    -0.056 C 
ATOM     26  H   LIG d   1       4.123   3.411  -9.973  0.00  0.00     0.026 H 
ATOM     27  H   LIG d   1       2.872   2.472 -10.823  0.00  0.00     0.026 H 
BRANCH  25  28
ATOM     28  C   LIG d   1       2.833   2.271  -8.679  0.00  0.00    -0.065 C 
ATOM     29  H   LIG d   1       3.192   2.996  -7.947  0.00  0.00     0.023 H 
ATOM     30  H   LIG d   1       1.766   2.419  -8.843  0.00  0.00     0.023 H 
ATOM     31  H   LIG d   1       3.008   1.262  -8.306  0.00  0.00     0.023 H 
ENDBRANCH  25  28
ENDBRANCH  22  25
ENDBRANCH  19  22
ENDBRANCH  16  19
ENDBRANCH  12  16
ENDBRANCH   8  11
ENDBRANCH   5   8
ENDBRANCH   1   4
BRANCH   1  32
ATOM     32  C   LIG d   1       2.371   0.111  -4.668  0.00  0.00    -0.050 C 
ATOM     33  H   LIG d   1       1.358   0.486  -4.517  0.00  0.00     0.027 H 
ATOM     34  H   LIG d   1       2.418  -0.936  -4.371  0.00  0.00     0.027 H 
BRANCH  32  35
ATOM     35  C   LIG d   1       3.348   0.926  -3.818  0.00  0.00    -0.053 C 
ATOM     36  H   LIG d   1       4.365   0.763  -4.177  0.00  0.00     0.026 H 
ATOM     37  H   LIG d   1       3.100   1.985  -3.895  0.00  0.00     0.026 H 
BRANCH  35  38
ATOM     38  C   LIG d   1       3.245   0.484  -2.357  0.00  0.00    -0.053 C 
ATOM     39  H   LIG d   1       2.935   1.329  -1.743  0.00  0.00     0.026 H 
ATOM     40  H   LIG d   1       2.511  -0.317  -2.271  0.00  0.00     0.026 H 
BRANCH  38  41
ATOM     41  C   LIG d   1       4.609  -0.020  -1.880  0.00  0.00    -0.053 C 
ATOM     42  H   LIG d   1       5.390   0.652  -2.236  0.00  0.00     0.026 H 
ATOM     43  H   LIG d   1       4.624  -0.050  -0.791  0.00  0.00     0.026 H 
BRANCH  41  44
ATOM     44  C   LIG d   1       4.854  -1.426  -2.432  0.00  0.00    -0.053 C 
ATOM     45  H   LIG d   1       4.950  -2.130  -1.606  0.00  0.00     0.026 H 
ATOM     46  H   LIG d   1       4.015  -1.719  -3.064  0.00  0.00     0.026 H 
BRANCH  44  47
ATOM     47  C   LIG d   1       6.142  -1.431  -3.259  0.00  0.00    -0.053 C 
ATOM     48  H   LIG d   1       6.175  -0.540  -3.885  0.00  0.00     0.026 H 
ATOM     49  H   LIG d   1       7.002  -1.438  -2.591  0.00  0.00     0.026 H 
BRANCH  47  50
ATOM     50  C   LIG d   1       6.174  -2.678  -4.145  0.00  0.00    -0.048 C 
ATOM     51  H   LIG d   1       6.555  -2.414  -5.131  0.00  0.00     0.027 H 
ATOM     52  H   LIG d   1       6.823  -3.428  -3.694  0.00  0.00     0.027 H 
BRANCH  50  53
ATOM     53  C   LIG d   1       4.759  -3.245  -4.280  0.00  0.00    -0.013 C 
ATOM     54  H   LIG d   1       4.419  -3.608  -3.310  0.00  0.00     0.033 H 
ATOM     55  H   LIG d   1       4.086  -2.461  -4.630  0.00  0.00     0.033 H 
BRANCH  53  56
ATOM     56  C   LIG d   1       4.764  -4.381  -5.269  0.00  0.00     0.042 C 
ATOM     57  O   LIG d   1       5.431  -4.304  -6.274  0.00  0.00    -0.550 OA
ATOM     58  O   LIG d   1       4.029  -5.480  -5.034  0.00  0.00    -0.550 OA
ENDBRANCH  53  56
ENDBRANCH  50  53
ENDBRANCH  47  50
ENDBRANCH  44  47
ENDBRANCH  41  44
ENDBRANCH  38  41
ENDBRANCH  35  38
ENDBRANCH  32  35
ENDBRANCH   1  32
TORSDOF 17
ENDMDL
MODEL 5
REMARK VINA RESULT:      -5.3      2.553      5.822
REMARK  17 active torsions:
REMARK  status: ('A' for Active; 'I' for Inactive)
REMARK    1  A    between atoms: C_1  and  C_2 
REMARK    2  A    between atoms: C_2  and  C_3 
REMARK    3  A    between atoms: C_3  and  C_4 
REMARK    4  A    between atoms: C_4  and  C_5 
REMARK    5  A    between atoms: C_5  and  C_6 
REMARK    6  A    between atoms: C_8  and  C_11 
REMARK    7  A    between atoms: C_11  and  C_12 
REMARK    8  A    between atoms: C_13  and  C_14 
REMARK    9  A    between atoms: C_14  and  C_15 
REMARK   10  A    between atoms: C_15  and  C_16 
REMARK   11  A    between atoms: C_16  and  C_17 
REMARK   12  A    between atoms: C_17  and  C_18 
REMARK   13  A    between atoms: C_18  and  C_19 
REMARK   14  A    between atoms: C_19  and  C_20 
REMARK   15  A    between atoms: C_20  and  C_21 
REMARK   16  A    between atoms: C_21  and  C_22 
REMARK   17  A    between atoms: C_22  and  C_23 
ROOT
ATOM      1  C   LIG d   1       5.582  -2.551  -3.785  0.00  0.00    -0.035 C 
ATOM      2  H   LIG d   1       5.977  -1.562  -4.013  0.00  0.00     0.031 H 
ATOM      3  H   LIG d   1       6.090  -2.951  -2.908  0.00  0.00     0.031 H 
ENDROOT
BRANCH   1   4
ATOM      4  C   LIG d   1       4.104  -2.450  -3.507  0.00  0.00    -0.088 C 
ATOM      5  C   LIG d   1       3.673  -1.715  -2.512  0.00  0.00    -0.085 C 
ATOM      6  H   LIG d   1       2.629  -1.738  -2.236  0.00  0.00     0.057 H 
ATOM      7  H   LIG d   1       3.400  -2.985  -4.128  0.00  0.00     0.057 H 
BRANCH   5   8
ATOM      8  C   LIG d   1       4.634  -0.836  -1.753  0.00  0.00    -0.006 C 
ATOM      9  H   LIG d   1       5.653  -1.044  -2.081  0.00  0.00     0.033 H 
ATOM     10  H   LIG d   1       4.548  -1.041  -0.686  0.00  0.00     0.033 H 
BRANCH   8  11
ATOM     11  C   LIG d   1       4.302   0.633  -2.020  0.00  0.00     0.089 A 
ATOM     12  C   LIG d   1       5.263   1.433  -2.900  0.00  0.00     0.086 A 
ATOM     13  H   LIG d   1       5.400   2.490  -2.674  0.00  0.00     0.062 H 
ATOM     14  O   LIG d   1       3.977   1.011  -3.359  0.00  0.00    -0.368 OA
ATOM     15  H   LIG d   1       3.799   1.159  -1.208  0.00  0.00     0.062 H 
BRANCH  12  16
ATOM     16  C   LIG d   1       6.492   0.709  -3.455  0.00  0.00    -0.024 C 
ATOM     17  H   LIG d   1       6.865   0.004  -2.713  0.00  0.00     0.029 H 
ATOM     18  H   LIG d   1       6.217   0.170  -4.363  0.00  0.00     0.029 H 
BRANCH  16  19
ATOM     19  C   LIG d   1       7.582   1.731  -3.781  0.00  0.00    -0.051 C 
ATOM     20  H   LIG d   1       7.121   2.684  -4.045  0.00  0.00     0.027 H 
ATOM     21  H   LIG d   1       8.224   1.868  -2.910  0.00  0.00     0.027 H 
BRANCH  19  22
ATOM     22  C   LIG d   1       8.420   1.227  -4.957  0.00  0.00    -0.053 C 
ATOM     23  H   LIG d   1       8.731   2.073  -5.570  0.00  0.00     0.026 H 
ATOM     24  H   LIG d   1       9.302   0.708  -4.579  0.00  0.00     0.026 H 
BRANCH  22  25
ATOM     25  C   LIG d   1       7.585   0.263  -5.802  0.00  0.00    -0.056 C 
ATOM     26  H   LIG d   1       8.113  -0.685  -5.901  0.00  0.00     0.026 H 
ATOM     27  H   LIG d   1       6.623   0.096  -5.318  0.00  0.00     0.026 H 
BRANCH  25  28
ATOM     28  C   LIG d   1       7.358   0.869  -7.189  0.00  0.00    -0.065 C 
ATOM     29  H   LIG d   1       7.897   1.815  -7.264  0.00  0.00     0.023 H 
ATOM     30  H   LIG d   1       7.726   0.181  -7.951  0.00  0.00     0.023 H 
ATOM     31  H   LIG d   1       6.293   1.044  -7.339  0.00  0.00     0.023 H 
ENDBRANCH  25  28
ENDBRANCH  22  25
ENDBRANCH  19  22
ENDBRANCH  16  19
ENDBRANCH  12  16
ENDBRANCH   8  11
ENDBRANCH   5   8
ENDBRANCH   1   4
BRANCH   1  32
ATOM     32  C   LIG d   1       5.814  -3.480  -4.978  0.00  0.00    -0.050 C 
ATOM     33  H   LIG d   1       6.793  -3.275  -5.413  0.00  0.00     0.027 H 
ATOM     34  H   LIG d   1       5.775  -4.516  -4.645  0.00  0.00     0.027 H 
BRANCH  32  35
ATOM     35  C   LIG d   1       4.729  -3.241  -6.029  0.00  0.00    -0.053 C 
ATOM     36  H   LIG d   1       4.331  -4.199  -6.365  0.00  0.00     0.026 H 
ATOM     37  H   LIG d   1       3.926  -2.646  -5.594  0.00  0.00     0.026 H 
BRANCH  35  38
ATOM     38  C   LIG d   1       5.329  -2.492  -7.221  0.00  0.00    -0.053 C 
ATOM     39  H   LIG d   1       6.283  -2.052  -6.931  0.00  0.00     0.026 H 
ATOM     40  H   LIG d   1       5.485  -3.188  -8.046  0.00  0.00     0.026 H 
BRANCH  38  41
ATOM     41  C   LIG d   1       4.369  -1.385  -7.663  0.00  0.00    -0.053 C 
ATOM     42  H   LIG d   1       4.846  -0.777  -8.431  0.00  0.00     0.026 H 
ATOM     43  H   LIG d   1       3.460  -1.831  -8.065  0.00  0.00     0.026 H 
BRANCH  41  44
ATOM     44  C   LIG d   1       4.017  -0.507  -6.460  0.00  0.00    -0.053 C 
ATOM     45  H   LIG d   1       3.759  -1.138  -5.611  0.00  0.00     0.026 H 
ATOM     46  H   LIG d   1       4.874   0.117  -6.202  0.00  0.00     0.026 H 
BRANCH  44  47
ATOM     47  C   LIG d   1       2.826   0.386  -6.814  0.00  0.00    -0.053 C 
ATOM     48  H   LIG d   1       1.912  -0.053  -6.414  0.00  0.00     0.026 H 
ATOM     49  H   LIG d   1       2.973   1.376  -6.382  0.00  0.00     0.026 H 
BRANCH  47  50
ATOM     50  C   LIG d   1       2.711   0.505  -8.335  0.00  0.00    -0.048 C 
ATOM     51  H   LIG d   1       3.470  -0.120  -8.806  0.00  0.00     0.027 H 
ATOM     52  H   LIG d   1       1.722   0.177  -8.651  0.00  0.00     0.027 H 
BRANCH  50  53
ATOM     53  C   LIG d   1       2.921   1.963  -8.750  0.00  0.00    -0.013 C 
ATOM     54  H   LIG d   1       2.018   2.337  -9.232  0.00  0.00     0.033 H 
ATOM     55  H   LIG d   1       3.138   2.564  -7.866  0.00  0.00     0.033 H 
BRANCH  53  56
ATOM     56  C   LIG d   1       4.078   2.050  -9.712  0.00  0.00     0.042 C 
ATOM     57  O   LIG d   1       5.094   2.616  -9.385  0.00  0.00    -0.550 OA
ATOM     58  O   LIG d   1       3.979   1.497 -10.931  0.00  0.00    -0.550 OA
ENDBRANCH  53  56
ENDBRANCH  50  53
ENDBRANCH  47  50
ENDBRANCH  44  47
ENDBRANCH  41  44
ENDBRANCH  38  41
ENDBRANCH  35  38
ENDBRANCH  32  35
ENDBRANCH   1  32
TORSDOF 17
ENDMDL
MODEL 6
REMARK VINA RESULT:      -5.3      2.233      6.085
REMARK  17 active torsions:
REMARK  status: ('A' for Active; 'I' for Inactive)
REMARK    1  A    between atoms: C_1  and  C_2 
REMARK    2  A    between atoms: C_2  and  C_3 
REMARK    3  A    between atoms: C_3  and  C_4 
REMARK    4  A    between atoms: C_4  and  C_5 
REMARK    5  A    between atoms: C_5  and  C_6 
REMARK    6  A    between atoms: C_8  and  C_11 
REMARK    7  A    between atoms: C_11  and  C_12 
REMARK    8  A    between atoms: C_13  and  C_14 
REMARK    9  A    between atoms: C_14  and  C_15 
REMARK   10  A    between atoms: C_15  and  C_16 
REMARK   11  A    between atoms: C_16  and  C_17 
REMARK   12  A    between atoms: C_17  and  C_18 
REMARK   13  A    between atoms: C_18  and  C_19 
REMARK   14  A    between atoms: C_19  and  C_20 
REMARK   15  A    between atoms: C_20  and  C_21 
REMARK   16  A    between atoms: C_21  and  C_22 
REMARK   17  A    between atoms: C_22  and  C_23 
ROOT
ATOM      1  C   LIG d   1       4.202  -0.502  -5.954  0.00  0.00    -0.035 C 
ATOM      2  H   LIG d   1       5.043   0.190  -5.932  0.00  0.00     0.031 H 
ATOM      3  H   LIG d   1       4.258  -1.168  -5.094  0.00  0.00     0.031 H 
ENDROOT
BRANCH   1   4
ATOM      4  C   LIG d   1       2.911   0.274  -5.905  0.00  0.00    -0.088 C 
ATOM      5  C   LIG d   1       2.251   0.377  -4.778  0.00  0.00    -0.085 C 
ATOM      6  H   LIG d   1       1.269   0.827  -4.767  0.00  0.00     0.057 H 
ATOM      7  H   LIG d   1       2.530   0.746  -6.799  0.00  0.00     0.057 H 
BRANCH   5   8
ATOM      8  C   LIG d   1       2.862  -0.132  -3.498  0.00  0.00    -0.006 C 
ATOM      9  H   LIG d   1       3.705  -0.783  -3.731  0.00  0.00     0.033 H 
ATOM     10  H   LIG d   1       2.115  -0.694  -2.937  0.00  0.00     0.033 H 
BRANCH   8  11
ATOM     11  C   LIG d   1       3.347   1.051  -2.659  0.00  0.00     0.089 A 
ATOM     12  C   LIG d   1       4.810   1.055  -2.211  0.00  0.00     0.086 A 
ATOM     13  H   LIG d   1       5.044   1.496  -1.242  0.00  0.00     0.062 H 
ATOM     14  O   LIG d   1       4.321   1.923  -3.236  0.00  0.00    -0.368 OA
ATOM     15  H   LIG d   1       2.609   1.489  -1.986  0.00  0.00     0.062 H 
BRANCH  12  16
ATOM     16  C   LIG d   1       5.689  -0.124  -2.633  0.00  0.00    -0.024 C 
ATOM     17  H   LIG d   1       6.115  -0.595  -1.748  0.00  0.00     0.029 H 
ATOM     18  H   LIG d   1       5.084  -0.852  -3.176  0.00  0.00     0.029 H 
BRANCH  16  19
ATOM     19  C   LIG d   1       6.816   0.377  -3.538  0.00  0.00    -0.051 C 
ATOM     20  H   LIG d   1       6.410   1.075  -4.272  0.00  0.00     0.027 H 
ATOM     21  H   LIG d   1       7.569   0.883  -2.934  0.00  0.00     0.027 H 
BRANCH  19  22
ATOM     22  C   LIG d   1       7.456  -0.809  -4.261  0.00  0.00    -0.053 C 
ATOM     23  H   LIG d   1       7.259  -0.732  -5.330  0.00  0.00     0.026 H 
ATOM     24  H   LIG d   1       8.533  -0.802  -4.088  0.00  0.00     0.026 H 
BRANCH  22  25
ATOM     25  C   LIG d   1       6.862  -2.114  -3.726  0.00  0.00    -0.056 C 
ATOM     26  H   LIG d   1       7.531  -2.537  -2.977  0.00  0.00     0.026 H 
ATOM     27  H   LIG d   1       5.890  -1.912  -3.275  0.00  0.00     0.026 H 
BRANCH  25  28
ATOM     28  C   LIG d   1       6.692  -3.106  -4.878  0.00  0.00    -0.065 C 
ATOM     29  H   LIG d   1       7.538  -3.796  -4.890  0.00  0.00     0.023 H 
ATOM     30  H   LIG d   1       5.768  -3.667  -4.742  0.00  0.00     0.023 H 
ATOM     31  H   LIG d   1       6.654  -2.563  -5.822  0.00  0.00     0.023 H 
ENDBRANCH  25  28
ENDBRANCH  22  25
ENDBRANCH  19  22
ENDBRANCH  16  19
ENDBRANCH  12  16
ENDBRANCH   8  11
ENDBRANCH   5   8
ENDBRANCH   1   4
BRANCH   1  32
ATOM     32  C   LIG d   1       4.254  -1.325  -7.242  0.00  0.00    -0.050 C 
ATOM     33  H   LIG d   1       4.146  -2.383  -7.002  0.00  0.00     0.027 H 
ATOM     34  H   LIG d   1       3.443  -1.018  -7.902  0.00  0.00     0.027 H 
BRANCH  32  35
ATOM     35  C   LIG d   1       5.595  -1.096  -7.941  0.00  0.00    -0.053 C 
ATOM     36  H   LIG d   1       6.385  -1.605  -7.387  0.00  0.00     0.026 H 
ATOM     37  H   LIG d   1       5.549  -1.493  -8.955  0.00  0.00     0.026 H 
BRANCH  35  38
ATOM     38  C   LIG d   1       5.894   0.403  -7.994  0.00  0.00    -0.053 C 
ATOM     39  H   LIG d   1       5.334   0.913  -7.210  0.00  0.00     0.026 H 
ATOM     40  H   LIG d   1       6.961   0.567  -7.843  0.00  0.00     0.026 H 
BRANCH  38  41
ATOM     41  C   LIG d   1       5.480   0.958  -9.359  0.00  0.00    -0.053 C 
ATOM     42  H   LIG d   1       6.370   1.156  -9.955  0.00  0.00     0.026 H 
ATOM     43  H   LIG d   1       4.854   0.229  -9.872  0.00  0.00     0.026 H 
BRANCH  41  44
ATOM     44  C   LIG d   1       4.695   2.257  -9.164  0.00  0.00    -0.053 C 
ATOM     45  H   LIG d   1       4.943   2.691  -8.196  0.00  0.00     0.026 H 
ATOM     46  H   LIG d   1       4.955   2.961  -9.955  0.00  0.00     0.026 H 
BRANCH  44  47
ATOM     47  C   LIG d   1       3.195   1.958  -9.220  0.00  0.00    -0.053 C 
ATOM     48  H   LIG d   1       2.828   1.754  -8.215  0.00  0.00     0.026 H 
ATOM     49  H   LIG d   1       2.669   2.819  -9.632  0.00  0.00     0.026 H 
BRANCH  47  50
ATOM     50  C   LIG d   1       2.951   0.738 -10.110  0.00  0.00    -0.048 C 
ATOM     51  H   LIG d   1       2.665   1.067 -11.109  0.00  0.00     0.027 H 
ATOM     52  H   LIG d   1       3.863   0.144 -10.171  0.00  0.00     0.027 H 
BRANCH  50  53
ATOM     53  C   LIG d   1       1.828  -0.113  -9.513  0.00  0.00    -0.013 C 
ATOM     54  H   LIG d   1       2.150  -0.518  -8.553  0.00  0.00     0.033 H 
ATOM     55  H   LIG d   1       0.942   0.507  -9.366  0.00  0.00     0.033 H 
BRANCH  53  56
ATOM     56  C   LIG d   1       1.500  -1.244 -10.453  0.00  0.00     0.042 C 
ATOM     57  O   LIG d   1       1.196  -1.008 -11.598  0.00  0.00    -0.550 OA
ATOM     58  O   LIG d   1       1.546  -2.513 -10.017  0.00  0.00    -0.550 OA
ENDBRANCH  53  56
ENDBRANCH  50  53
ENDBRANCH  47  50
ENDBRANCH  44  47
ENDBRANCH  41  44
ENDBRANCH  38  41
ENDBRANCH  35  38
ENDBRANCH  32  35
ENDBRANCH   1  32
TORSDOF 17
ENDMDL
MODEL 7
REMARK VINA RESULT:      -5.3      2.462      4.372
REMARK  17 active torsions:
REMARK  status: ('A' for Active; 'I' for Inactive)
REMARK    1  A    between atoms: C_1  and  C_2 
REMARK    2  A    between atoms: C_2  and  C_3 
REMARK    3  A    between atoms: C_3  and  C_4 
REMARK    4  A    between atoms: C_4  and  C_5 
REMARK    5  A    between atoms: C_5  and  C_6 
REMARK    6  A    between atoms: C_8  and  C_11 
REMARK    7  A    between atoms: C_11  and  C_12 
REMARK    8  A    between atoms: C_13  and  C_14 
REMARK    9  A    between atoms: C_14  and  C_15 
REMARK   10  A    between atoms: C_15  and  C_16 
REMARK   11  A    between atoms: C_16  and  C_17 
REMARK   12  A    between atoms: C_17  and  C_18 
REMARK   13  A    between atoms: C_18  and  C_19 
REMARK   14  A    between atoms: C_19  and  C_20 
REMARK   15  A    between atoms: C_20  and  C_21 
REMARK   16  A    between atoms: C_21  and  C_22 
REMARK   17  A    between atoms: C_22  and  C_23 
ROOT
ATOM      1  C   LIG d   1       4.415  -1.969  -4.865  0.00  0.00    -0.035 C 
ATOM      2  H   LIG d   1       4.618  -0.910  -4.711  0.00  0.00     0.031 H 
ATOM      3  H   LIG d   1       3.387  -2.097  -5.203  0.00  0.00     0.031 H 
ENDROOT
BRANCH   1   4
ATOM      4  C   LIG d   1       5.358  -2.515  -5.907  0.00  0.00    -0.088 C 
ATOM      5  C   LIG d   1       5.739  -1.758  -6.906  0.00  0.00    -0.085 C 
ATOM      6  H   LIG d   1       6.315  -2.182  -7.715  0.00  0.00     0.057 H 
ATOM      7  H   LIG d   1       5.719  -3.530  -5.830  0.00  0.00     0.057 H 
BRANCH   5   8
ATOM      8  C   LIG d   1       5.376  -0.295  -6.924  0.00  0.00    -0.006 C 
ATOM      9  H   LIG d   1       5.835   0.204  -6.070  0.00  0.00     0.033 H 
ATOM     10  H   LIG d   1       4.293  -0.189  -6.867  0.00  0.00     0.033 H 
BRANCH   8  11
ATOM     11  C   LIG d   1       5.884   0.341  -8.219  0.00  0.00     0.089 A 
ATOM     12  C   LIG d   1       4.929   1.257  -8.986  0.00  0.00     0.086 A 
ATOM     13  H   LIG d   1       4.995   1.265 -10.074  0.00  0.00     0.062 H 
ATOM     14  O   LIG d   1       6.044   1.760  -8.247  0.00  0.00    -0.368 OA
ATOM     15  H   LIG d   1       6.586  -0.261  -8.798  0.00  0.00     0.062 H 
BRANCH  12  16
ATOM     16  C   LIG d   1       3.530   1.476  -8.405  0.00  0.00    -0.024 C 
ATOM     17  H   LIG d   1       3.480   1.046  -7.405  0.00  0.00     0.029 H 
ATOM     18  H   LIG d   1       3.323   2.545  -8.352  0.00  0.00     0.029 H 
BRANCH  16  19
ATOM     19  C   LIG d   1       2.493   0.799  -9.303  0.00  0.00    -0.051 C 
ATOM     20  H   LIG d   1       1.573   1.385  -9.300  0.00  0.00     0.027 H 
ATOM     21  H   LIG d   1       2.879   0.734 -10.320  0.00  0.00     0.027 H 
BRANCH  19  22
ATOM     22  C   LIG d   1       2.203  -0.608  -8.777  0.00  0.00    -0.053 C 
ATOM     23  H   LIG d   1       3.108  -1.025  -8.337  0.00  0.00     0.026 H 
ATOM     24  H   LIG d   1       1.419  -0.558  -8.020  0.00  0.00     0.026 H 
BRANCH  22  25
ATOM     25  C   LIG d   1       1.740  -1.498  -9.932  0.00  0.00    -0.056 C 
ATOM     26  H   LIG d   1       2.253  -2.458  -9.880  0.00  0.00     0.026 H 
ATOM     27  H   LIG d   1       0.664  -1.656  -9.861  0.00  0.00     0.026 H 
BRANCH  25  28
ATOM     28  C   LIG d   1       2.067  -0.816 -11.263  0.00  0.00    -0.065 C 
ATOM     29  H   LIG d   1       1.561  -1.342 -12.074  0.00  0.00     0.023 H 
ATOM     30  H   LIG d   1       1.726   0.219 -11.234  0.00  0.00     0.023 H 
ATOM     31  H   LIG d   1       3.143  -0.841 -11.429  0.00  0.00     0.023 H 
ENDBRANCH  25  28
ENDBRANCH  22  25
ENDBRANCH  19  22
ENDBRANCH  16  19
ENDBRANCH  12  16
ENDBRANCH   8  11
ENDBRANCH   5   8
ENDBRANCH   1   4
BRANCH   1  32
ATOM     32  C   LIG d   1       4.617  -2.724  -3.550  0.00  0.00    -0.050 C 
ATOM     33  H   LIG d   1       4.220  -3.734  -3.645  0.00  0.00     0.027 H 
ATOM     34  H   LIG d   1       5.681  -2.772  -3.318  0.00  0.00     0.027 H 
BRANCH  32  35
ATOM     35  C   LIG d   1       3.884  -1.992  -2.424  0.00  0.00    -0.053 C 
ATOM     36  H   LIG d   1       3.331  -2.713  -1.821  0.00  0.00     0.026 H 
ATOM     37  H   LIG d   1       4.608  -1.473  -1.796  0.00  0.00     0.026 H 
BRANCH  35  38
ATOM     38  C   LIG d   1       2.910  -0.976  -3.025  0.00  0.00    -0.053 C 
ATOM     39  H   LIG d   1       3.026  -0.959  -4.108  0.00  0.00     0.026 H 
ATOM     40  H   LIG d   1       1.888  -1.259  -2.772  0.00  0.00     0.026 H 
BRANCH  38  41
ATOM     41  C   LIG d   1       3.209   0.414  -2.458  0.00  0.00    -0.053 C 
ATOM     42  H   LIG d   1       3.123   1.156  -3.251  0.00  0.00     0.026 H 
ATOM     43  H   LIG d   1       2.497   0.644  -1.666  0.00  0.00     0.026 H 
BRANCH  41  44
ATOM     44  C   LIG d   1       4.630   0.437  -1.889  0.00  0.00    -0.053 C 
ATOM     45  H   LIG d   1       4.615   0.875  -0.892  0.00  0.00     0.026 H 
ATOM     46  H   LIG d   1       5.016  -0.581  -1.834  0.00  0.00     0.026 H 
BRANCH  44  47
ATOM     47  C   LIG d   1       5.529   1.275  -2.801  0.00  0.00    -0.053 C 
ATOM     48  H   LIG d   1       4.950   1.637  -3.649  0.00  0.00     0.026 H 
ATOM     49  H   LIG d   1       5.924   2.123  -2.242  0.00  0.00     0.026 H 
BRANCH  47  50
ATOM     50  C   LIG d   1       6.688   0.412  -3.306  0.00  0.00    -0.048 C 
ATOM     51  H   LIG d   1       7.219  -0.017  -2.456  0.00  0.00     0.027 H 
ATOM     52  H   LIG d   1       6.298  -0.389  -3.933  0.00  0.00     0.027 H 
BRANCH  50  53
ATOM     53  C   LIG d   1       7.650   1.278  -4.122  0.00  0.00    -0.013 C 
ATOM     54  H   LIG d   1       7.086   2.043  -4.657  0.00  0.00     0.033 H 
ATOM     55  H   LIG d   1       8.366   1.755  -3.453  0.00  0.00     0.033 H 
BRANCH  53  56
ATOM     56  C   LIG d   1       8.387   0.413  -5.112  0.00  0.00     0.042 C 
ATOM     57  O   LIG d   1       8.839   0.900  -6.121  0.00  0.00    -0.550 OA
ATOM     58  O   LIG d   1       8.540  -0.900  -4.873  0.00  0.00    -0.550 OA
ENDBRANCH  53  56
ENDBRANCH  50  53
ENDBRANCH  47  50
ENDBRANCH  44  47
ENDBRANCH  41  44
ENDBRANCH  38  41
ENDBRANCH  35  38
ENDBRANCH  32  35
ENDBRANCH   1  32
TORSDOF 17
ENDMDL
MODEL 8
REMARK VINA RESULT:      -5.3      2.732      6.494
REMARK  17 active torsions:
REMARK  status: ('A' for Active; 'I' for Inactive)
REMARK    1  A    between atoms: C_1  and  C_2 
REMARK    2  A    between atoms: C_2  and  C_3 
REMARK    3  A    between atoms: C_3  and  C_4 
REMARK    4  A    between atoms: C_4  and  C_5 
REMARK    5  A    between atoms: C_5  and  C_6 
REMARK    6  A    between atoms: C_8  and  C_11 
REMARK    7  A    between atoms: C_11  and  C_12 
REMARK    8  A    between atoms: C_13  and  C_14 
REMARK    9  A    between atoms: C_14  and  C_15 
REMARK   10  A    between atoms: C_15  and  C_16 
REMARK   11  A    between atoms: C_16  and  C_17 
REMARK   12  A    between atoms: C_17  and  C_18 
REMARK   13  A    between atoms: C_18  and  C_19 
REMARK   14  A    between atoms: C_19  and  C_20 
REMARK   15  A    between atoms: C_20  and  C_21 
REMARK   16  A    between atoms: C_21  and  C_22 
REMARK   17  A    between atoms: C_22  and  C_23 
ROOT
ATOM      1  C   LIG d   1       4.181  -0.926  -5.922  0.00  0.00    -0.035 C 
ATOM      2  H   LIG d   1       4.900  -0.644  -5.154  0.00  0.00     0.031 H 
ATOM      3  H   LIG d   1       3.746  -1.893  -5.675  0.00  0.00     0.031 H 
ENDROOT
BRANCH   1   4
ATOM      4  C   LIG d   1       3.091   0.112  -5.995  0.00  0.00    -0.088 C 
ATOM      5  C   LIG d   1       2.425   0.439  -4.915  0.00  0.00    -0.085 C 
ATOM      6  H   LIG d   1       1.566   1.090  -4.986  0.00  0.00     0.057 H 
ATOM      7  H   LIG d   1       2.858   0.586  -6.937  0.00  0.00     0.057 H 
BRANCH   5   8
ATOM      8  C   LIG d   1       2.859  -0.091  -3.572  0.00  0.00    -0.006 C 
ATOM      9  H   LIG d   1       3.675  -0.801  -3.709  0.00  0.00     0.033 H 
ATOM     10  H   LIG d   1       2.019  -0.592  -3.091  0.00  0.00     0.033 H 
BRANCH   8  11
ATOM     11  C   LIG d   1       3.334   1.068  -2.695  0.00  0.00     0.089 A 
ATOM     12  C   LIG d   1       4.785   1.050  -2.213  0.00  0.00     0.086 A 
ATOM     13  H   LIG d   1       5.000   1.466  -1.228  0.00  0.00     0.062 H 
ATOM     14  O   LIG d   1       4.327   1.945  -3.228  0.00  0.00    -0.368 OA
ATOM     15  H   LIG d   1       2.582   1.496  -2.030  0.00  0.00     0.062 H 
BRANCH  12  16
ATOM     16  C   LIG d   1       5.665  -0.126  -2.642  0.00  0.00    -0.024 C 
ATOM     17  H   LIG d   1       6.101  -0.595  -1.759  0.00  0.00     0.029 H 
ATOM     18  H   LIG d   1       5.058  -0.857  -3.179  0.00  0.00     0.029 H 
BRANCH  16  19
ATOM     19  C   LIG d   1       6.782   0.378  -3.556  0.00  0.00    -0.051 C 
ATOM     20  H   LIG d   1       6.366   1.068  -4.292  0.00  0.00     0.027 H 
ATOM     21  H   LIG d   1       7.534   0.895  -2.959  0.00  0.00     0.027 H 
BRANCH  19  22
ATOM     22  C   LIG d   1       7.428  -0.807  -4.275  0.00  0.00    -0.053 C 
ATOM     23  H   LIG d   1       7.082  -0.838  -5.308  0.00  0.00     0.026 H 
ATOM     24  H   LIG d   1       8.513  -0.695  -4.258  0.00  0.00     0.026 H 
BRANCH  22  25
ATOM     25  C   LIG d   1       7.040  -2.107  -3.567  0.00  0.00    -0.056 C 
ATOM     26  H   LIG d   1       7.719  -2.285  -2.734  0.00  0.00     0.026 H 
ATOM     27  H   LIG d   1       6.019  -2.026  -3.194  0.00  0.00     0.026 H 
BRANCH  25  28
ATOM     28  C   LIG d   1       7.129  -3.271  -4.556  0.00  0.00    -0.065 C 
ATOM     29  H   LIG d   1       6.724  -2.959  -5.521  0.00  0.00     0.023 H 
ATOM     30  H   LIG d   1       8.171  -3.566  -4.679  0.00  0.00     0.023 H 
ATOM     31  H   LIG d   1       6.553  -4.115  -4.177  0.00  0.00     0.023 H 
ENDBRANCH  25  28
ENDBRANCH  22  25
ENDBRANCH  19  22
ENDBRANCH  16  19
ENDBRANCH  12  16
ENDBRANCH   8  11
ENDBRANCH   5   8
ENDBRANCH   1   4
BRANCH   1  32
ATOM     32  C   LIG d   1       4.891  -1.015  -7.275  0.00  0.00    -0.050 C 
ATOM     33  H   LIG d   1       4.267  -0.558  -8.043  0.00  0.00     0.027 H 
ATOM     34  H   LIG d   1       5.844  -0.490  -7.221  0.00  0.00     0.027 H 
BRANCH  32  35
ATOM     35  C   LIG d   1       5.137  -2.484  -7.626  0.00  0.00    -0.053 C 
ATOM     36  H   LIG d   1       5.992  -2.558  -8.298  0.00  0.00     0.026 H 
ATOM     37  H   LIG d   1       5.342  -3.045  -6.714  0.00  0.00     0.026 H 
BRANCH  35  38
ATOM     38  C   LIG d   1       3.896  -3.060  -8.310  0.00  0.00    -0.053 C 
ATOM     39  H   LIG d   1       4.083  -4.096  -8.589  0.00  0.00     0.026 H 
ATOM     40  H   LIG d   1       3.049  -3.015  -7.625  0.00  0.00     0.026 H 
BRANCH  38  41
ATOM     41  C   LIG d   1       3.581  -2.243  -9.565  0.00  0.00    -0.053 C 
ATOM     42  H   LIG d   1       4.112  -1.292  -9.523  0.00  0.00     0.026 H 
ATOM     43  H   LIG d   1       3.898  -2.797 -10.448  0.00  0.00     0.026 H 
BRANCH  41  44
ATOM     44  C   LIG d   1       2.075  -1.984  -9.639  0.00  0.00    -0.053 C 
ATOM     45  H   LIG d   1       1.696  -2.312 -10.607  0.00  0.00     0.026 H 
ATOM     46  H   LIG d   1       1.572  -2.537  -8.845  0.00  0.00     0.026 H 
BRANCH  44  47
ATOM     47  C   LIG d   1       1.806  -0.487  -9.467  0.00  0.00    -0.053 C 
ATOM     48  H   LIG d   1       0.796  -0.258  -9.805  0.00  0.00     0.026 H 
ATOM     49  H   LIG d   1       1.907  -0.219  -8.416  0.00  0.00     0.026 H 
BRANCH  47  50
ATOM     50  C   LIG d   1       2.815   0.310 -10.297  0.00  0.00    -0.048 C 
ATOM     51  H   LIG d   1       3.669  -0.323 -10.537  0.00  0.00     0.027 H 
ATOM     52  H   LIG d   1       2.341   0.647 -11.218  0.00  0.00     0.027 H 
BRANCH  50  53
ATOM     53  C   LIG d   1       3.289   1.524  -9.495  0.00  0.00    -0.013 C 
ATOM     54  H   LIG d   1       2.716   2.402  -9.792  0.00  0.00     0.033 H 
ATOM     55  H   LIG d   1       3.140   1.337  -8.431  0.00  0.00     0.033 H 
BRANCH  53  56
ATOM     56  C   LIG d   1       4.752   1.763  -9.763  0.00  0.00     0.042 C 
ATOM     57  O   LIG d   1       5.374   0.991 -10.454  0.00  0.00    -0.550 OA
ATOM     58  O   LIG d   1       5.365   2.834  -9.234  0.00  0.00    -0.550 OA
ENDBRANCH  53  56
ENDBRANCH  50  53
ENDBRANCH  47  50
ENDBRANCH  44  47
ENDBRANCH  41  44
ENDBRANCH  38  41
ENDBRANCH  35  38
ENDBRANCH  32  35
ENDBRANCH   1  32
TORSDOF 17
ENDMDL
MODEL 9
REMARK VINA RESULT:      -5.2      2.502      6.585
REMARK  17 active torsions:
REMARK  status: ('A' for Active; 'I' for Inactive)
REMARK    1  A    between atoms: C_1  and  C_2 
REMARK    2  A    between atoms: C_2  and  C_3 
REMARK    3  A    between atoms: C_3  and  C_4 
REMARK    4  A    between atoms: C_4  and  C_5 
REMARK    5  A    between atoms: C_5  and  C_6 
REMARK    6  A    between atoms: C_8  and  C_11 
REMARK    7  A    between atoms: C_11  and  C_12 
REMARK    8  A    between atoms: C_13  and  C_14 
REMARK    9  A    between atoms: C_14  and  C_15 
REMARK   10  A    between atoms: C_15  and  C_16 
REMARK   11  A    between atoms: C_16  and  C_17 
REMARK   12  A    between atoms: C_17  and  C_18 
REMARK   13  A    between atoms: C_18  and  C_19 
REMARK   14  A    between atoms: C_19  and  C_20 
REMARK   15  A    between atoms: C_20  and  C_21 
REMARK   16  A    between atoms: C_21  and  C_22 
REMARK   17  A    between atoms: C_22  and  C_23 
ROOT
ATOM      1  C   LIG d   1       3.948  -0.920  -6.905  0.00  0.00    -0.035 C 
ATOM      2  H   LIG d   1       4.063  -1.902  -7.361  0.00  0.00     0.031 H 
ATOM      3  H   LIG d   1       3.788  -1.033  -5.834  0.00  0.00     0.031 H 
ENDROOT
BRANCH   1   4
ATOM      4  C   LIG d   1       5.195  -0.106  -7.143  0.00  0.00    -0.088 C 
ATOM      5  C   LIG d   1       6.310  -0.423  -6.532  0.00  0.00    -0.085 C 
ATOM      6  H   LIG d   1       7.169   0.227  -6.606  0.00  0.00     0.057 H 
ATOM      7  H   LIG d   1       5.169   0.737  -7.818  0.00  0.00     0.057 H 
BRANCH   5   8
ATOM      8  C   LIG d   1       6.393  -1.694  -5.727  0.00  0.00    -0.006 C 
ATOM      9  H   LIG d   1       6.995  -2.427  -6.266  0.00  0.00     0.033 H 
ATOM     10  H   LIG d   1       5.390  -2.093  -5.572  0.00  0.00     0.033 H 
BRANCH   8  11
ATOM     11  C   LIG d   1       7.040  -1.399  -4.373  0.00  0.00     0.089 A 
ATOM     12  C   LIG d   1       6.224  -1.694  -3.114  0.00  0.00     0.086 A 
ATOM     13  H   LIG d   1       6.363  -1.039  -2.253  0.00  0.00     0.062 H 
ATOM     14  O   LIG d   1       7.329  -2.506  -3.517  0.00  0.00    -0.368 OA
ATOM     15  H   LIG d   1       7.722  -0.548  -4.350  0.00  0.00     0.062 H 
BRANCH  12  16
ATOM     16  C   LIG d   1       4.816  -2.264  -3.293  0.00  0.00    -0.024 C 
ATOM     17  H   LIG d   1       4.507  -2.149  -4.332  0.00  0.00     0.029 H 
ATOM     18  H   LIG d   1       4.816  -3.322  -3.029  0.00  0.00     0.029 H 
BRANCH  16  19
ATOM     19  C   LIG d   1       3.841  -1.512  -2.385  0.00  0.00    -0.051 C 
ATOM     20  H   LIG d   1       2.934  -1.274  -2.943  0.00  0.00     0.027 H 
ATOM     21  H   LIG d   1       3.586  -2.136  -1.529  0.00  0.00     0.027 H 
BRANCH  19  22
ATOM     22  C   LIG d   1       4.493  -0.217  -1.896  0.00  0.00    -0.053 C 
ATOM     23  H   LIG d   1       4.615  -0.258  -0.814  0.00  0.00     0.026 H 
ATOM     24  H   LIG d   1       5.470  -0.102  -2.369  0.00  0.00     0.026 H 
BRANCH  22  25
ATOM     25  C   LIG d   1       3.605   0.972  -2.266  0.00  0.00    -0.056 C 
ATOM     26  H   LIG d   1       2.699   0.953  -1.660  0.00  0.00     0.026 H 
ATOM     27  H   LIG d   1       4.146   1.901  -2.082  0.00  0.00     0.026 H 
BRANCH  25  28
ATOM     28  C   LIG d   1       3.230   0.887  -3.747  0.00  0.00    -0.065 C 
ATOM     29  H   LIG d   1       3.499   1.820  -4.244  0.00  0.00     0.023 H 
ATOM     30  H   LIG d   1       3.768   0.061  -4.211  0.00  0.00     0.023 H 
ATOM     31  H   LIG d   1       2.157   0.722  -3.841  0.00  0.00     0.023 H 
ENDBRANCH  25  28
ENDBRANCH  22  25
ENDBRANCH  19  22
ENDBRANCH  16  19
ENDBRANCH  12  16
ENDBRANCH   8  11
ENDBRANCH   5   8
ENDBRANCH   1   4
BRANCH   1  32
ATOM     32  C   LIG d   1       2.747  -0.206  -7.529  0.00  0.00    -0.050 C 
ATOM     33  H   LIG d   1       2.599  -0.565  -8.548  0.00  0.00     0.027 H 
ATOM     34  H   LIG d   1       1.855  -0.412  -6.938  0.00  0.00     0.027 H 
BRANCH  32  35
ATOM     35  C   LIG d   1       3.006   1.302  -7.553  0.00  0.00    -0.053 C 
ATOM     36  H   LIG d   1       2.409   1.785  -6.779  0.00  0.00     0.026 H 
ATOM     37  H   LIG d   1       4.064   1.492  -7.367  0.00  0.00     0.026 H 
BRANCH  35  38
ATOM     38  C   LIG d   1       2.620   1.864  -8.922  0.00  0.00    -0.053 C 
ATOM     39  H   LIG d   1       2.032   1.125  -9.466  0.00  0.00     0.026 H 
ATOM     40  H   LIG d   1       2.030   2.772  -8.789  0.00  0.00     0.026 H 
BRANCH  38  41
ATOM     41  C   LIG d   1       3.888   2.191  -9.715  0.00  0.00    -0.053 C 
ATOM     42  H   LIG d   1       3.885   3.247  -9.984  0.00  0.00     0.026 H 
ATOM     43  H   LIG d   1       4.764   1.974  -9.105  0.00  0.00     0.026 H 
BRANCH  41  44
ATOM     44  C   LIG d   1       3.927   1.340 -10.985  0.00  0.00    -0.053 C 
ATOM     45  H   LIG d   1       2.911   1.080 -11.282  0.00  0.00     0.026 H 
ATOM     46  H   LIG d   1       4.407   1.904 -11.786  0.00  0.00     0.026 H 
BRANCH  44  47
ATOM     47  C   LIG d   1       4.723   0.060 -10.716  0.00  0.00    -0.053 C 
ATOM     48  H   LIG d   1       5.567   0.006 -11.403  0.00  0.00     0.026 H 
ATOM     49  H   LIG d   1       5.090   0.070  -9.690  0.00  0.00     0.026 H 
BRANCH  47  50
ATOM     50  C   LIG d   1       3.818  -1.156 -10.923  0.00  0.00    -0.048 C 
ATOM     51  H   LIG d   1       4.402  -1.977 -11.341  0.00  0.00     0.027 H 
ATOM     52  H   LIG d   1       3.395  -1.461  -9.967  0.00  0.00     0.027 H 
BRANCH  50  53
ATOM     53  C   LIG d   1       2.688  -0.792 -11.888  0.00  0.00    -0.013 C 
ATOM     54  H   LIG d   1       2.569   0.291 -11.917  0.00  0.00     0.033 H 
ATOM     55  H   LIG d   1       2.932  -1.158 -12.887  0.00  0.00     0.033 H 
BRANCH  53  56
ATOM     56  C   LIG d   1       1.404  -1.428 -11.421  0.00  0.00     0.042 C 
ATOM     57  O   LIG d   1       1.277  -1.753 -10.264  0.00  0.00    -0.550 OA
ATOM     58  O   LIG d   1       0.401  -1.631 -12.290  0.00  0.00    -0.550 OA
ENDBRANCH  53  56
ENDBRANCH  50  53
ENDBRANCH  47  50
ENDBRANCH  44  47
ENDBRANCH  41  44
ENDBRANCH  38  41
ENDBRANCH  35  38
ENDBRANCH  32  35
ENDBRANCH   1  32
TORSDOF 17
ENDMDL
MODEL 10
REMARK VINA RESULT:      -5.2      1.824      3.082
REMARK  17 active torsions:
REMARK  status: ('A' for Active; 'I' for Inactive)
REMARK    1  A    between atoms: C_1  and  C_2 
REMARK    2  A    between atoms: C_2  and  C_3 
REMARK    3  A    between atoms: C_3  and  C_4 
REMARK    4  A    between atoms: C_4  and  C_5 
REMARK    5  A    between atoms: C_5  and  C_6 
REMARK    6  A    between atoms: C_8  and  C_11 
REMARK    7  A    between atoms: C_11  and  C_12 
REMARK    8  A    between atoms: C_13  and  C_14 
REMARK    9  A    between atoms: C_14  and  C_15 
REMARK   10  A    between atoms: C_15  and  C_16 
REMARK   11  A    between atoms: C_16  and  C_17 
REMARK   12  A    between atoms: C_17  and  C_18 
REMARK   13  A    between atoms: C_18  and  C_19 
REMARK   14  A    between atoms: C_19  and  C_20 
REMARK   15  A    between atoms: C_20  and  C_21 
REMARK   16  A    between atoms: C_21  and  C_22 
REMARK   17  A    between atoms: C_22  and  C_23 
ROOT
ATOM      1  C   LIG d   1       6.520   0.737  -3.282  0.00  0.00    -0.035 C 
ATOM      2  H   LIG d   1       6.246  -0.015  -4.022  0.00  0.00     0.031 H 
ATOM      3  H   LIG d   1       6.929   0.246  -2.399  0.00  0.00     0.031 H 
ENDROOT
BRANCH   1   4
ATOM      4  C   LIG d   1       7.554   1.664  -3.866  0.00  0.00    -0.088 C 
ATOM      5  C   LIG d   1       8.039   1.435  -5.061  0.00  0.00    -0.085 C 
ATOM      6  H   LIG d   1       8.865   2.024  -5.431  0.00  0.00     0.057 H 
ATOM      7  H   LIG d   1       7.896   2.518  -3.299  0.00  0.00     0.057 H 
BRANCH   5   8
ATOM      8  C   LIG d   1       7.444   0.349  -5.920  0.00  0.00    -0.006 C 
ATOM      9  H   LIG d   1       6.387   0.232  -5.677  0.00  0.00     0.033 H 
ATOM     10  H   LIG d   1       7.965  -0.589  -5.733  0.00  0.00     0.033 H 
BRANCH   8  11
ATOM     11  C   LIG d   1       7.588   0.728  -7.395  0.00  0.00     0.089 A 
ATOM     12  C   LIG d   1       6.445   0.358  -8.341  0.00  0.00     0.086 A 
ATOM     13  H   LIG d   1       6.700   0.091  -9.367  0.00  0.00     0.062 H 
ATOM     14  O   LIG d   1       6.688   1.704  -7.924  0.00  0.00    -0.368 OA
ATOM     15  H   LIG d   1       8.604   0.707  -7.791  0.00  0.00     0.062 H 
BRANCH  12  16
ATOM     16  C   LIG d   1       5.234  -0.365  -7.749  0.00  0.00    -0.024 C 
ATOM     17  H   LIG d   1       5.403  -1.441  -7.779  0.00  0.00     0.029 H 
ATOM     18  H   LIG d   1       5.092  -0.048  -6.715  0.00  0.00     0.029 H 
BRANCH  16  19
ATOM     19  C   LIG d   1       3.986  -0.022  -8.564  0.00  0.00    -0.051 C 
ATOM     20  H   LIG d   1       4.281   0.461  -9.496  0.00  0.00     0.027 H 
ATOM     21  H   LIG d   1       3.435  -0.936  -8.788  0.00  0.00     0.027 H 
BRANCH  19  22
ATOM     22  C   LIG d   1       3.094   0.925  -7.758  0.00  0.00    -0.053 C 
ATOM     23  H   LIG d   1       2.148   0.432  -7.538  0.00  0.00     0.026 H 
ATOM     24  H   LIG d   1       3.594   1.187  -6.825  0.00  0.00     0.026 H 
BRANCH  22  25
ATOM     25  C   LIG d   1       2.833   2.194  -8.571  0.00  0.00    -0.056 C 
ATOM     26  H   LIG d   1       1.770   2.269  -8.797  0.00  0.00     0.026 H 
ATOM     27  H   LIG d   1       3.145   3.065  -7.995  0.00  0.00     0.026 H 
BRANCH  25  28
ATOM     28  C   LIG d   1       3.630   2.135  -9.876  0.00  0.00    -0.065 C 
ATOM     29  H   LIG d   1       4.696   2.086  -9.648  0.00  0.00     0.023 H 
ATOM     30  H   LIG d   1       3.338   1.250 -10.441  0.00  0.00     0.023 H 
ATOM     31  H   LIG d   1       3.426   3.028 -10.466  0.00  0.00     0.023 H 
ENDBRANCH  25  28
ENDBRANCH  22  25
ENDBRANCH  19  22
ENDBRANCH  16  19
ENDBRANCH  12  16
ENDBRANCH   8  11
ENDBRANCH   5   8
ENDBRANCH   1   4
BRANCH   1  32
ATOM     32  C   LIG d   1       5.278   1.540  -2.890  0.00  0.00    -0.050 C 
ATOM     33  H   LIG d   1       5.575   2.547  -2.594  0.00  0.00     0.027 H 
ATOM     34  H   LIG d   1       4.599   1.597  -3.740  0.00  0.00     0.027 H 
BRANCH  32  35
ATOM     35  C   LIG d   1       4.574   0.852  -1.719  0.00  0.00    -0.053 C 
ATOM     36  H   LIG d   1       5.319   0.439  -1.038  0.00  0.00     0.026 H 
ATOM     37  H   LIG d   1       3.959   1.579  -1.187  0.00  0.00     0.026 H 
BRANCH  35  38
ATOM     38  C   LIG d   1       3.686  -0.275  -2.248  0.00  0.00    -0.053 C 
ATOM     39  H   LIG d   1       2.707  -0.221  -1.773  0.00  0.00     0.026 H 
ATOM     40  H   LIG d   1       3.573  -0.172  -3.328  0.00  0.00     0.026 H 
BRANCH  38  41
ATOM     41  C   LIG d   1       4.333  -1.626  -1.931  0.00  0.00    -0.053 C 
ATOM     42  H   LIG d   1       5.417  -1.515  -1.919  0.00  0.00     0.026 H 
ATOM     43  H   LIG d   1       3.992  -1.971  -0.956  0.00  0.00     0.026 H 
BRANCH  41  44
ATOM     44  C   LIG d   1       3.935  -2.645  -3.001  0.00  0.00    -0.053 C 
ATOM     45  H   LIG d   1       4.140  -3.652  -2.639  0.00  0.00     0.026 H 
ATOM     46  H   LIG d   1       2.871  -2.546  -3.219  0.00  0.00     0.026 H 
BRANCH  44  47
ATOM     47  C   LIG d   1       4.742  -2.387  -4.275  0.00  0.00    -0.053 C 
ATOM     48  H   LIG d   1       4.095  -1.942  -5.031  0.00  0.00     0.026 H 
ATOM     49  H   LIG d   1       5.563  -1.706  -4.053  0.00  0.00     0.026 H 
BRANCH  47  50
ATOM     50  C   LIG d   1       5.304  -3.710  -4.799  0.00  0.00    -0.048 C 
ATOM     51  H   LIG d   1       6.327  -3.836  -4.444  0.00  0.00     0.027 H 
ATOM     52  H   LIG d   1       4.690  -4.534  -4.438  0.00  0.00     0.027 H 
BRANCH  50  53
ATOM     53  C   LIG d   1       5.294  -3.699  -6.329  0.00  0.00    -0.013 C 
ATOM     54  H   LIG d   1       5.279  -2.668  -6.684  0.00  0.00     0.033 H 
ATOM     55  H   LIG d   1       6.188  -4.199  -6.702  0.00  0.00     0.033 H 
BRANCH  53  56
ATOM     56  C   LIG d   1       4.069  -4.421  -6.828  0.00  0.00     0.042 C 
ATOM     57  O   LIG d   1       3.634  -4.182  -7.930  0.00  0.00    -0.550 OA
ATOM     58  O   LIG d   1       3.462  -5.331  -6.049  0.00  0.00    -0.550 OA
ENDBRANCH  53  56
ENDBRANCH  50  53
ENDBRANCH  47  50
ENDBRANCH  44  47
ENDBRANCH  41  44
ENDBRANCH  38  41
ENDBRANCH  35  38
ENDBRANCH  32  35
ENDBRANCH   1  32
TORSDOF 17
ENDMDL
