MODEL 1
REMARK VINA RESULT:      -6.8      0.000      0.000
REMARK  8 active torsions:
REMARK  status: ('A' for Active; 'I' for Inactive)
REMARK    1  A    between atoms: C_1  and  O_2 
REMARK    2  A    between atoms: O_2  and  C_3 
REMARK    3  A    between atoms: C_6  and  C_11 
REMARK    4  A    between atoms: C_8  and  O_9 
REMARK    5  A    between atoms: O_9  and  C_10 
REMARK       I    between atoms: C_11  and  N_13 
REMARK    6  A    between atoms: N_13  and  C_14 
REMARK    7  A    between atoms: C_14  and  C_15 
REMARK    8  A    between atoms: C_15  and  N_16 
ROOT
ATOM      1  C   LIG d   1      10.472   3.550  -2.918  0.00  0.00     0.244 C 
ATOM      2  O   LIG d   1      11.542   3.017  -3.140  0.00  0.00    -0.270 OA
ATOM      3  N   LIG d   1       9.330   2.973  -3.342  0.00  0.00    -0.310 N 
ATOM      4  H   LIG d   1       8.477   3.398  -3.165  0.00  0.00     0.149 HD
ENDROOT
BRANCH   3   5
ATOM      5  C   LIG d   1       9.379   1.702  -4.070  0.00  0.00     0.030 C 
ATOM      6  H   LIG d   1      10.193   1.730  -4.795  0.00  0.00     0.048 H 
ATOM      7  H   LIG d   1       9.546   0.886  -3.367  0.00  0.00     0.048 H 
BRANCH   5   8
ATOM      8  C   LIG d   1       8.052   1.482  -4.801  0.00  0.00     0.039 C 
ATOM      9  H   LIG d   1       7.394   2.331  -4.620  0.00  0.00     0.051 H 
ATOM     10  H   LIG d   1       8.239   1.388  -5.871  0.00  0.00     0.051 H 
BRANCH   8  11
ATOM     11  N   LIG d   1       7.419   0.258  -4.305  0.00  0.00    -0.345 N 
ATOM     12  C   LIG d   1       6.349   0.216  -3.440  0.00  0.00     0.049 A 
ATOM     13  C   LIG d   1       6.046  -1.141  -3.220  0.00  0.00    -0.000 A 
ATOM     14  C   LIG d   1       5.586   1.195  -2.812  0.00  0.00    -0.038 A 
ATOM     15  C   LIG d   1       7.018  -1.905  -4.005  0.00  0.00    -0.036 A 
ATOM     16  C   LIG d   1       4.990  -1.491  -2.377  0.00  0.00    -0.053 A 
ATOM     17  C   LIG d   1       7.807  -1.014  -4.628  0.00  0.00     0.006 A 
ATOM     18  H   LIG d   1       7.087  -2.980  -4.072  0.00  0.00     0.064 H 
ATOM     19  H   LIG d   1       8.625  -1.264  -5.287  0.00  0.00     0.081 H 
ATOM     20  C   LIG d   1       4.259  -0.512  -1.763  0.00  0.00    -0.061 A 
ATOM     21  H   LIG d   1       4.758  -2.531  -2.203  0.00  0.00     0.062 H 
ATOM     22  C   LIG d   1       4.551   0.827  -1.980  0.00  0.00    -0.060 A 
ATOM     23  H   LIG d   1       3.444  -0.784  -1.108  0.00  0.00     0.062 H 
ATOM     24  H   LIG d   1       3.960   1.589  -1.492  0.00  0.00     0.062 H 
ATOM     25  H   LIG d   1       5.805   2.240  -2.974  0.00  0.00     0.064 H 
ENDBRANCH   8  11
ENDBRANCH   5   8
ENDBRANCH   3   5
BRANCH   1  26
ATOM     26  C   LIG d   1      10.424   4.830  -2.184  0.00  0.00     0.040 A 
ATOM     27  C   LIG d   1       9.745   5.923  -2.729  0.00  0.00    -0.046 A 
ATOM     28  C   LIG d   1       9.701   7.118  -2.043  0.00  0.00    -0.016 A 
ATOM     29  H   LIG d   1       9.255   5.833  -3.687  0.00  0.00     0.063 H 
ATOM     30  C   LIG d   1      10.329   7.238  -0.810  0.00  0.00     0.162 A 
ATOM     31  H   LIG d   1       9.176   7.962  -2.464  0.00  0.00     0.066 H 
ATOM     32  C   LIG d   1      11.012   6.152  -0.264  0.00  0.00     0.162 A 
ATOM     33  C   LIG d   1      11.056   4.951  -0.945  0.00  0.00    -0.004 A 
ATOM     34  H   LIG d   1      11.581   4.108  -0.521  0.00  0.00     0.066 H 
BRANCH  30  35
ATOM     35  O   LIG d   1      10.282   8.416  -0.138  0.00  0.00    -0.491 OA
BRANCH  35  36
ATOM     36  C   LIG d   1       9.395   9.417  -0.642  0.00  0.00     0.079 C 
ATOM     37  H   LIG d   1       8.873   9.891   0.188  0.00  0.00     0.066 H 
ATOM     38  H   LIG d   1       9.966  10.167  -1.189  0.00  0.00     0.066 H 
ATOM     39  H   LIG d   1       8.669   8.954  -1.311  0.00  0.00     0.066 H 
ENDBRANCH  35  36
ENDBRANCH  30  35
BRANCH  32  40
ATOM     40  O   LIG d   1      11.630   6.274   0.942  0.00  0.00    -0.491 OA
BRANCH  40  41
ATOM     41  C   LIG d   1      10.955   5.726   2.075  0.00  0.00     0.079 C 
ATOM     42  H   LIG d   1       9.961   6.165   2.152  0.00  0.00     0.066 H 
ATOM     43  H   LIG d   1      10.866   4.646   1.959  0.00  0.00     0.066 H 
ATOM     44  H   LIG d   1      11.522   5.949   2.979  0.00  0.00     0.066 H 
ENDBRANCH  40  41
ENDBRANCH  32  40
ENDBRANCH   1  26
TORSDOF 8
ENDMDL
MODEL 2
REMARK VINA RESULT:      -6.6      1.378      2.432
REMARK  8 active torsions:
REMARK  status: ('A' for Active; 'I' for Inactive)
REMARK    1  A    between atoms: C_1  and  O_2 
REMARK    2  A    between atoms: O_2  and  C_3 
REMARK    3  A    between atoms: C_6  and  C_11 
REMARK    4  A    between atoms: C_8  and  O_9 
REMARK    5  A    between atoms: O_9  and  C_10 
REMARK       I    between atoms: C_11  and  N_13 
REMARK    6  A    between atoms: N_13  and  C_14 
REMARK    7  A    between atoms: C_14  and  C_15 
REMARK    8  A    between atoms: C_15  and  N_16 
ROOT
ATOM      1  C   LIG d   1      10.086   3.872  -2.826  0.00  0.00     0.244 C 
ATOM      2  O   LIG d   1      10.939   3.182  -2.301  0.00  0.00    -0.270 OA
ATOM      3  N   LIG d   1       9.154   3.305  -3.618  0.00  0.00    -0.310 N 
ATOM      4  H   LIG d   1       8.474   3.855  -4.036  0.00  0.00     0.149 HD
ENDROOT
BRANCH   3   5
ATOM      5  C   LIG d   1       9.169   1.858  -3.846  0.00  0.00     0.030 C 
ATOM      6  H   LIG d   1      10.111   1.574  -4.314  0.00  0.00     0.048 H 
ATOM      7  H   LIG d   1       9.064   1.338  -2.894  0.00  0.00     0.048 H 
BRANCH   5   8
ATOM      8  C   LIG d   1       8.007   1.475  -4.766  0.00  0.00     0.039 C 
ATOM      9  H   LIG d   1       7.275   2.282  -4.781  0.00  0.00     0.051 H 
ATOM     10  H   LIG d   1       8.384   1.307  -5.776  0.00  0.00     0.051 H 
BRANCH   8  11
ATOM     11  N   LIG d   1       7.375   0.250  -4.271  0.00  0.00    -0.345 N 
ATOM     12  C   LIG d   1       6.298   0.207  -3.414  0.00  0.00     0.049 A 
ATOM     13  C   LIG d   1       6.000  -1.150  -3.191  0.00  0.00    -0.000 A 
ATOM     14  C   LIG d   1       5.528   1.186  -2.794  0.00  0.00    -0.038 A 
ATOM     15  C   LIG d   1       6.980  -1.913  -3.967  0.00  0.00    -0.036 A 
ATOM     16  C   LIG d   1       4.938  -1.501  -2.355  0.00  0.00    -0.053 A 
ATOM     17  C   LIG d   1       7.770  -1.021  -4.587  0.00  0.00     0.006 A 
ATOM     18  H   LIG d   1       7.054  -2.988  -4.029  0.00  0.00     0.064 H 
ATOM     19  H   LIG d   1       8.594  -1.271  -5.238  0.00  0.00     0.081 H 
ATOM     20  C   LIG d   1       4.199  -0.523  -1.749  0.00  0.00    -0.061 A 
ATOM     21  H   LIG d   1       4.709  -2.542  -2.178  0.00  0.00     0.062 H 
ATOM     22  C   LIG d   1       4.488   0.816  -1.969  0.00  0.00    -0.060 A 
ATOM     23  H   LIG d   1       3.381  -0.796  -1.099  0.00  0.00     0.062 H 
ATOM     24  H   LIG d   1       3.890   1.577  -1.488  0.00  0.00     0.062 H 
ATOM     25  H   LIG d   1       5.744   2.231  -2.959  0.00  0.00     0.064 H 
ENDBRANCH   8  11
ENDBRANCH   5   8
ENDBRANCH   3   5
BRANCH   1  26
ATOM     26  C   LIG d   1      10.071   5.329  -2.595  0.00  0.00     0.040 A 
ATOM     27  C   LIG d   1      10.140   5.832  -1.293  0.00  0.00    -0.046 A 
ATOM     28  C   LIG d   1      10.125   7.193  -1.078  0.00  0.00    -0.016 A 
ATOM     29  H   LIG d   1      10.203   5.154  -0.454  0.00  0.00     0.063 H 
ATOM     30  C   LIG d   1      10.045   8.068  -2.153  0.00  0.00     0.162 A 
ATOM     31  H   LIG d   1      10.179   7.581  -0.071  0.00  0.00     0.066 H 
ATOM     32  C   LIG d   1       9.972   7.572  -3.454  0.00  0.00     0.162 A 
ATOM     33  C   LIG d   1       9.990   6.210  -3.676  0.00  0.00    -0.004 A 
ATOM     34  H   LIG d   1       9.938   5.825  -4.684  0.00  0.00     0.066 H 
BRANCH  30  35
ATOM     35  O   LIG d   1      10.032   9.408  -1.937  0.00  0.00    -0.491 OA
BRANCH  35  36
ATOM     36  C   LIG d   1       9.041   9.911  -1.039  0.00  0.00     0.079 C 
ATOM     37  H   LIG d   1       8.958  10.991  -1.157  0.00  0.00     0.066 H 
ATOM     38  H   LIG d   1       8.080   9.447  -1.261  0.00  0.00     0.066 H 
ATOM     39  H   LIG d   1       9.329   9.679  -0.013  0.00  0.00     0.066 H 
ENDBRANCH  35  36
ENDBRANCH  30  35
BRANCH  32  40
ATOM     40  O   LIG d   1       9.888   8.432  -4.506  0.00  0.00    -0.491 OA
BRANCH  40  41
ATOM     41  C   LIG d   1       9.268   7.942  -5.696  0.00  0.00     0.079 C 
ATOM     42  H   LIG d   1       8.710   7.035  -5.467  0.00  0.00     0.066 H 
ATOM     43  H   LIG d   1       8.589   8.697  -6.090  0.00  0.00     0.066 H 
ATOM     44  H   LIG d   1      10.034   7.719  -6.439  0.00  0.00     0.066 H 
ENDBRANCH  40  41
ENDBRANCH  32  40
ENDBRANCH   1  26
TORSDOF 8
ENDMDL
MODEL 3
REMARK VINA RESULT:      -6.6      1.087      2.002
REMARK  8 active torsions:
REMARK  status: ('A' for Active; 'I' for Inactive)
REMARK    1  A    between atoms: C_1  and  O_2 
REMARK    2  A    between atoms: O_2  and  C_3 
REMARK    3  A    between atoms: C_6  and  C_11 
REMARK    4  A    between atoms: C_8  and  O_9 
REMARK    5  A    between atoms: O_9  and  C_10 
REMARK       I    between atoms: C_11  and  N_13 
REMARK    6  A    between atoms: N_13  and  C_14 
REMARK    7  A    between atoms: C_14  and  C_15 
REMARK    8  A    between atoms: C_15  and  N_16 
ROOT
ATOM      1  C   LIG d   1       9.974   4.479  -3.194  0.00  0.00     0.244 C 
ATOM      2  O   LIG d   1       9.999   4.880  -4.342  0.00  0.00    -0.270 OA
ATOM      3  N   LIG d   1       9.693   3.186  -2.937  0.00  0.00    -0.310 N 
ATOM      4  H   LIG d   1       9.674   2.867  -2.021  0.00  0.00     0.149 HD
ENDROOT
BRANCH   3   5
ATOM      5  C   LIG d   1       9.417   2.264  -4.041  0.00  0.00     0.030 C 
ATOM      6  H   LIG d   1       9.910   2.622  -4.946  0.00  0.00     0.048 H 
ATOM      7  H   LIG d   1       9.794   1.273  -3.791  0.00  0.00     0.048 H 
BRANCH   5   8
ATOM      8  C   LIG d   1       7.907   2.191  -4.279  0.00  0.00     0.039 C 
ATOM      9  H   LIG d   1       7.398   2.861  -3.587  0.00  0.00     0.051 H 
ATOM     10  H   LIG d   1       7.686   2.490  -5.304  0.00  0.00     0.051 H 
BRANCH   8  11
ATOM     11  N   LIG d   1       7.444   0.818  -4.061  0.00  0.00    -0.345 N 
ATOM     12  C   LIG d   1       6.342   0.465  -3.315  0.00  0.00     0.049 A 
ATOM     13  C   LIG d   1       6.244  -0.938  -3.359  0.00  0.00    -0.000 A 
ATOM     14  C   LIG d   1       5.398   1.192  -2.597  0.00  0.00    -0.038 A 
ATOM     15  C   LIG d   1       7.371  -1.398  -4.175  0.00  0.00    -0.036 A 
ATOM     16  C   LIG d   1       5.205  -1.585  -2.687  0.00  0.00    -0.053 A 
ATOM     17  C   LIG d   1       8.046  -0.303  -4.562  0.00  0.00     0.006 A 
ATOM     18  H   LIG d   1       7.611  -2.421  -4.419  0.00  0.00     0.064 H 
ATOM     19  H   LIG d   1       8.933  -0.309  -5.178  0.00  0.00     0.081 H 
ATOM     20  C   LIG d   1       4.293  -0.852  -1.981  0.00  0.00    -0.061 A 
ATOM     21  H   LIG d   1       5.129  -2.662  -2.716  0.00  0.00     0.062 H 
ATOM     22  C   LIG d   1       4.385   0.533  -1.937  0.00  0.00    -0.060 A 
ATOM     23  H   LIG d   1       3.492  -1.353  -1.458  0.00  0.00     0.062 H 
ATOM     24  H   LIG d   1       3.652   1.099  -1.380  0.00  0.00     0.062 H 
ATOM     25  H   LIG d   1       5.460   2.269  -2.557  0.00  0.00     0.064 H 
ENDBRANCH   8  11
ENDBRANCH   5   8
ENDBRANCH   3   5
BRANCH   1  26
ATOM     26  C   LIG d   1      10.253   5.409  -2.082  0.00  0.00     0.040 A 
ATOM     27  C   LIG d   1      11.224   5.089  -1.130  0.00  0.00    -0.046 A 
ATOM     28  C   LIG d   1      11.484   5.958  -0.091  0.00  0.00    -0.016 A 
ATOM     29  H   LIG d   1      11.772   4.161  -1.206  0.00  0.00     0.063 H 
ATOM     30  C   LIG d   1      10.783   7.152   0.010  0.00  0.00     0.162 A 
ATOM     31  H   LIG d   1      12.235   5.710   0.644  0.00  0.00     0.066 H 
ATOM     32  C   LIG d   1       9.810   7.475  -0.934  0.00  0.00     0.162 A 
ATOM     33  C   LIG d   1       9.548   6.610  -1.979  0.00  0.00    -0.004 A 
ATOM     34  H   LIG d   1       8.797   6.861  -2.714  0.00  0.00     0.066 H 
BRANCH  30  35
ATOM     35  O   LIG d   1      11.043   8.005   1.034  0.00  0.00    -0.491 OA
BRANCH  35  36
ATOM     36  C   LIG d   1      12.168   8.874   0.886  0.00  0.00     0.079 C 
ATOM     37  H   LIG d   1      12.092   9.409  -0.060  0.00  0.00     0.066 H 
ATOM     38  H   LIG d   1      12.184   9.590   1.708  0.00  0.00     0.066 H 
ATOM     39  H   LIG d   1      13.085   8.285   0.898  0.00  0.00     0.066 H 
ENDBRANCH  35  36
ENDBRANCH  30  35
BRANCH  32  40
ATOM     40  O   LIG d   1       9.121   8.644  -0.829  0.00  0.00    -0.491 OA
BRANCH  40  41
ATOM     41  C   LIG d   1       9.543   9.722  -1.667  0.00  0.00     0.079 C 
ATOM     42  H   LIG d   1       9.214  10.666  -1.236  0.00  0.00     0.066 H 
ATOM     43  H   LIG d   1      10.629   9.717  -1.746  0.00  0.00     0.066 H 
ATOM     44  H   LIG d   1       9.106   9.603  -2.658  0.00  0.00     0.066 H 
ENDBRANCH  40  41
ENDBRANCH  32  40
ENDBRANCH   1  26
TORSDOF 8
ENDMDL
MODEL 4
REMARK VINA RESULT:      -6.2      2.928      5.083
REMARK  8 active torsions:
REMARK  status: ('A' for Active; 'I' for Inactive)
REMARK    1  A    between atoms: C_1  and  O_2 
REMARK    2  A    between atoms: O_2  and  C_3 
REMARK    3  A    between atoms: C_6  and  C_11 
REMARK    4  A    between atoms: C_8  and  O_9 
REMARK    5  A    between atoms: O_9  and  C_10 
REMARK       I    between atoms: C_11  and  N_13 
REMARK    6  A    between atoms: N_13  and  C_14 
REMARK    7  A    between atoms: C_14  and  C_15 
REMARK    8  A    between atoms: C_15  and  N_16 
ROOT
ATOM      1  C   LIG d   1       7.273   0.295  -6.229  0.00  0.00     0.244 C 
ATOM      2  O   LIG d   1       7.640  -0.856  -6.095  0.00  0.00    -0.270 OA
ATOM      3  N   LIG d   1       6.150   0.569  -6.922  0.00  0.00    -0.310 N 
ATOM      4  H   LIG d   1       5.857   1.488  -7.029  0.00  0.00     0.149 HD
ENDROOT
BRANCH   3   5
ATOM      5  C   LIG d   1       5.371  -0.522  -7.514  0.00  0.00     0.030 C 
ATOM      6  H   LIG d   1       5.161  -0.292  -8.559  0.00  0.00     0.048 H 
ATOM      7  H   LIG d   1       5.939  -1.450  -7.453  0.00  0.00     0.048 H 
BRANCH   5   8
ATOM      8  C   LIG d   1       4.053  -0.679  -6.752  0.00  0.00     0.039 C 
ATOM      9  H   LIG d   1       3.614   0.303  -6.581  0.00  0.00     0.051 H 
ATOM     10  H   LIG d   1       3.365  -1.288  -7.338  0.00  0.00     0.051 H 
BRANCH   8  11
ATOM     11  N   LIG d   1       4.308  -1.331  -5.465  0.00  0.00    -0.345 N 
ATOM     12  C   LIG d   1       4.270  -0.704  -4.240  0.00  0.00     0.049 A 
ATOM     13  C   LIG d   1       4.567  -1.677  -3.267  0.00  0.00    -0.000 A 
ATOM     14  C   LIG d   1       4.009   0.602  -3.841  0.00  0.00    -0.038 A 
ATOM     15  C   LIG d   1       4.795  -2.925  -3.999  0.00  0.00    -0.036 A 
ATOM     16  C   LIG d   1       4.596  -1.325  -1.917  0.00  0.00    -0.053 A 
ATOM     17  C   LIG d   1       4.626  -2.652  -5.303  0.00  0.00     0.006 A 
ATOM     18  H   LIG d   1       5.049  -3.883  -3.572  0.00  0.00     0.064 H 
ATOM     19  H   LIG d   1       4.725  -3.369  -6.105  0.00  0.00     0.081 H 
ATOM     20  C   LIG d   1       4.344  -0.033  -1.547  0.00  0.00    -0.061 A 
ATOM     21  H   LIG d   1       4.827  -2.068  -1.168  0.00  0.00     0.062 H 
ATOM     22  C   LIG d   1       4.048   0.929  -2.502  0.00  0.00    -0.060 A 
ATOM     23  H   LIG d   1       4.371   0.239  -0.502  0.00  0.00     0.062 H 
ATOM     24  H   LIG d   1       3.845   1.944  -2.193  0.00  0.00     0.062 H 
ATOM     25  H   LIG d   1       3.777   1.358  -4.576  0.00  0.00     0.064 H 
ENDBRANCH   8  11
ENDBRANCH   5   8
ENDBRANCH   3   5
BRANCH   1  26
ATOM     26  C   LIG d   1       8.058   1.393  -5.631  0.00  0.00     0.040 A 
ATOM     27  C   LIG d   1       8.103   1.545  -4.243  0.00  0.00    -0.046 A 
ATOM     28  C   LIG d   1       8.836   2.571  -3.685  0.00  0.00    -0.016 A 
ATOM     29  H   LIG d   1       7.564   0.859  -3.606  0.00  0.00     0.063 H 
ATOM     30  C   LIG d   1       9.531   3.454  -4.500  0.00  0.00     0.162 A 
ATOM     31  H   LIG d   1       8.871   2.687  -2.612  0.00  0.00     0.066 H 
ATOM     32  C   LIG d   1       9.485   3.311  -5.886  0.00  0.00     0.162 A 
ATOM     33  C   LIG d   1       8.756   2.282  -6.451  0.00  0.00    -0.004 A 
ATOM     34  H   LIG d   1       8.724   2.168  -7.524  0.00  0.00     0.066 H 
BRANCH  30  35
ATOM     35  O   LIG d   1      10.252   4.462  -3.946  0.00  0.00    -0.491 OA
BRANCH  35  36
ATOM     36  C   LIG d   1      10.112   4.663  -2.538  0.00  0.00     0.079 C 
ATOM     37  H   LIG d   1       9.087   4.449  -2.241  0.00  0.00     0.066 H 
ATOM     38  H   LIG d   1      10.791   3.996  -2.008  0.00  0.00     0.066 H 
ATOM     39  H   LIG d   1      10.354   5.697  -2.294  0.00  0.00     0.066 H 
ENDBRANCH  35  36
ENDBRANCH  30  35
BRANCH  32  40
ATOM     40  O   LIG d   1      10.164   4.181  -6.683  0.00  0.00    -0.491 OA
BRANCH  40  41
ATOM     41  C   LIG d   1       9.632   4.414  -7.988  0.00  0.00     0.079 C 
ATOM     42  H   LIG d   1       9.314   3.467  -8.425  0.00  0.00     0.066 H 
ATOM     43  H   LIG d   1       8.778   5.087  -7.919  0.00  0.00     0.066 H 
ATOM     44  H   LIG d   1      10.400   4.864  -8.617  0.00  0.00     0.066 H 
ENDBRANCH  40  41
ENDBRANCH  32  40
ENDBRANCH   1  26
TORSDOF 8
ENDMDL
MODEL 5
REMARK VINA RESULT:      -6.2      2.350      3.888
REMARK  8 active torsions:
REMARK  status: ('A' for Active; 'I' for Inactive)
REMARK    1  A    between atoms: C_1  and  O_2 
REMARK    2  A    between atoms: O_2  and  C_3 
REMARK    3  A    between atoms: C_6  and  C_11 
REMARK    4  A    between atoms: C_8  and  O_9 
REMARK    5  A    between atoms: O_9  and  C_10 
REMARK       I    between atoms: C_11  and  N_13 
REMARK    6  A    between atoms: N_13  and  C_14 
REMARK    7  A    between atoms: C_14  and  C_15 
REMARK    8  A    between atoms: C_15  and  N_16 
ROOT
ATOM      1  C   LIG d   1       8.452   1.484  -5.205  0.00  0.00     0.244 C 
ATOM      2  O   LIG d   1       7.594   1.526  -6.067  0.00  0.00    -0.270 OA
ATOM      3  N   LIG d   1       8.919   0.295  -4.775  0.00  0.00    -0.310 N 
ATOM      4  H   LIG d   1       9.602   0.263  -4.088  0.00  0.00     0.149 HD
ENDROOT
BRANCH   3   5
ATOM      5  C   LIG d   1       8.393  -0.948  -5.346  0.00  0.00     0.030 C 
ATOM      6  H   LIG d   1       7.864  -0.726  -6.273  0.00  0.00     0.048 H 
ATOM      7  H   LIG d   1       9.216  -1.631  -5.551  0.00  0.00     0.048 H 
BRANCH   5   8
ATOM      8  C   LIG d   1       7.426  -1.596  -4.351  0.00  0.00     0.039 C 
ATOM      9  H   LIG d   1       7.459  -2.679  -4.467  0.00  0.00     0.051 H 
ATOM     10  H   LIG d   1       7.718  -1.330  -3.335  0.00  0.00     0.051 H 
BRANCH   8  11
ATOM     11  N   LIG d   1       6.066  -1.118  -4.610  0.00  0.00    -0.345 N 
ATOM     12  C   LIG d   1       5.330  -0.328  -3.756  0.00  0.00     0.049 A 
ATOM     13  C   LIG d   1       4.089  -0.092  -4.375  0.00  0.00    -0.000 A 
ATOM     14  C   LIG d   1       5.585   0.227  -2.505  0.00  0.00    -0.038 A 
ATOM     15  C   LIG d   1       4.131  -0.805  -5.653  0.00  0.00    -0.036 A 
ATOM     16  C   LIG d   1       3.129   0.693  -3.733  0.00  0.00    -0.053 A 
ATOM     17  C   LIG d   1       5.335  -1.396  -5.732  0.00  0.00     0.006 A 
ATOM     18  H   LIG d   1       3.346  -0.848  -6.391  0.00  0.00     0.064 H 
ATOM     19  H   LIG d   1       5.676  -2.000  -6.561  0.00  0.00     0.081 H 
ATOM     20  C   LIG d   1       3.397   1.222  -2.501  0.00  0.00    -0.061 A 
ATOM     21  H   LIG d   1       2.173   0.873  -4.204  0.00  0.00     0.062 H 
ATOM     22  C   LIG d   1       4.621   0.994  -1.888  0.00  0.00    -0.060 A 
ATOM     23  H   LIG d   1       2.651   1.825  -2.004  0.00  0.00     0.062 H 
ATOM     24  H   LIG d   1       4.820   1.424  -0.917  0.00  0.00     0.062 H 
ATOM     25  H   LIG d   1       6.534   0.056  -2.020  0.00  0.00     0.064 H 
ENDBRANCH   8  11
ENDBRANCH   5   8
ENDBRANCH   3   5
BRANCH   1  26
ATOM     26  C   LIG d   1       8.982   2.737  -4.632  0.00  0.00     0.040 A 
ATOM     27  C   LIG d   1       9.467   2.756  -3.322  0.00  0.00    -0.046 A 
ATOM     28  C   LIG d   1       9.961   3.926  -2.787  0.00  0.00    -0.016 A 
ATOM     29  H   LIG d   1       9.455   1.854  -2.727  0.00  0.00     0.063 H 
ATOM     30  C   LIG d   1       9.980   5.087  -3.548  0.00  0.00     0.162 A 
ATOM     31  H   LIG d   1      10.336   3.940  -1.774  0.00  0.00     0.066 H 
ATOM     32  C   LIG d   1       9.492   5.076  -4.854  0.00  0.00     0.162 A 
ATOM     33  C   LIG d   1       9.000   3.905  -5.397  0.00  0.00    -0.004 A 
ATOM     34  H   LIG d   1       8.626   3.894  -6.410  0.00  0.00     0.066 H 
BRANCH  30  35
ATOM     35  O   LIG d   1      10.468   6.237  -3.017  0.00  0.00    -0.491 OA
BRANCH  35  36
ATOM     36  C   LIG d   1       9.765   6.787  -1.900  0.00  0.00     0.079 C 
ATOM     37  H   LIG d   1       9.564   6.000  -1.174  0.00  0.00     0.066 H 
ATOM     38  H   LIG d   1      10.372   7.563  -1.435  0.00  0.00     0.066 H 
ATOM     39  H   LIG d   1       8.823   7.217  -2.241  0.00  0.00     0.066 H 
ENDBRANCH  35  36
ENDBRANCH  30  35
BRANCH  32  40
ATOM     40  O   LIG d   1       9.507   6.216  -5.595  0.00  0.00    -0.491 OA
BRANCH  40  41
ATOM     41  C   LIG d   1       9.964   6.106  -6.945  0.00  0.00     0.079 C 
ATOM     42  H   LIG d   1      10.332   7.074  -7.283  0.00  0.00     0.066 H 
ATOM     43  H   LIG d   1      10.768   5.373  -6.998  0.00  0.00     0.066 H 
ATOM     44  H   LIG d   1       9.139   5.788  -7.582  0.00  0.00     0.066 H 
ENDBRANCH  40  41
ENDBRANCH  32  40
ENDBRANCH   1  26
TORSDOF 8
ENDMDL
MODEL 6
REMARK VINA RESULT:      -6.2      5.932      9.611
REMARK  8 active torsions:
REMARK  status: ('A' for Active; 'I' for Inactive)
REMARK    1  A    between atoms: C_1  and  O_2 
REMARK    2  A    between atoms: O_2  and  C_3 
REMARK    3  A    between atoms: C_6  and  C_11 
REMARK    4  A    between atoms: C_8  and  O_9 
REMARK    5  A    between atoms: O_9  and  C_10 
REMARK       I    between atoms: C_11  and  N_13 
REMARK    6  A    between atoms: N_13  and  C_14 
REMARK    7  A    between atoms: C_14  and  C_15 
REMARK    8  A    between atoms: C_15  and  N_16 
ROOT
ATOM      1  C   LIG d   1       2.854   0.357  -5.362  0.00  0.00     0.244 C 
ATOM      2  O   LIG d   1       2.709   1.473  -4.900  0.00  0.00    -0.270 OA
ATOM      3  N   LIG d   1       2.883  -0.714  -4.545  0.00  0.00    -0.310 N 
ATOM      4  H   LIG d   1       2.998  -1.603  -4.914  0.00  0.00     0.149 HD
ENDROOT
BRANCH   3   5
ATOM      5  C   LIG d   1       2.739  -0.533  -3.098  0.00  0.00     0.030 C 
ATOM      6  H   LIG d   1       2.658   0.530  -2.870  0.00  0.00     0.048 H 
ATOM      7  H   LIG d   1       1.842  -1.048  -2.754  0.00  0.00     0.048 H 
BRANCH   5   8
ATOM      8  C   LIG d   1       3.964  -1.114  -2.387  0.00  0.00     0.039 C 
ATOM      9  H   LIG d   1       3.902  -0.897  -1.321  0.00  0.00     0.051 H 
ATOM     10  H   LIG d   1       3.994  -2.193  -2.538  0.00  0.00     0.051 H 
BRANCH   8  11
ATOM     11  N   LIG d   1       5.180  -0.510  -2.939  0.00  0.00    -0.345 N 
ATOM     12  C   LIG d   1       6.134  -1.182  -3.669  0.00  0.00     0.049 A 
ATOM     13  C   LIG d   1       7.129  -0.247  -4.010  0.00  0.00    -0.000 A 
ATOM     14  C   LIG d   1       6.266  -2.501  -4.090  0.00  0.00    -0.038 A 
ATOM     15  C   LIG d   1       6.707   1.027  -3.423  0.00  0.00    -0.036 A 
ATOM     16  C   LIG d   1       8.233  -0.648  -4.765  0.00  0.00    -0.053 A 
ATOM     17  C   LIG d   1       5.539   0.802  -2.798  0.00  0.00     0.006 A 
ATOM     18  H   LIG d   1       7.233   1.967  -3.481  0.00  0.00     0.064 H 
ATOM     19  H   LIG d   1       4.968   1.548  -2.265  0.00  0.00     0.081 H 
ATOM     20  C   LIG d   1       8.347  -1.952  -5.161  0.00  0.00    -0.061 A 
ATOM     21  H   LIG d   1       9.001   0.066  -5.025  0.00  0.00     0.062 H 
ATOM     22  C   LIG d   1       7.366  -2.877  -4.830  0.00  0.00    -0.060 A 
ATOM     23  H   LIG d   1       9.203  -2.262  -5.741  0.00  0.00     0.062 H 
ATOM     24  H   LIG d   1       7.467  -3.902  -5.156  0.00  0.00     0.062 H 
ATOM     25  H   LIG d   1       5.508  -3.228  -3.838  0.00  0.00     0.064 H 
ENDBRANCH   8  11
ENDBRANCH   5   8
ENDBRANCH   3   5
BRANCH   1  26
ATOM     26  C   LIG d   1       2.998   0.177  -6.820  0.00  0.00     0.040 A 
ATOM     27  C   LIG d   1       2.663   1.218  -7.690  0.00  0.00    -0.046 A 
ATOM     28  C   LIG d   1       2.797   1.048  -9.052  0.00  0.00    -0.016 A 
ATOM     29  H   LIG d   1       2.299   2.155  -7.297  0.00  0.00     0.063 H 
ATOM     30  C   LIG d   1       3.267  -0.155  -9.561  0.00  0.00     0.162 A 
ATOM     31  H   LIG d   1       2.539   1.853  -9.723  0.00  0.00     0.066 H 
ATOM     32  C   LIG d   1       3.598  -1.199  -8.699  0.00  0.00     0.162 A 
ATOM     33  C   LIG d   1       3.469  -1.034  -7.334  0.00  0.00    -0.004 A 
ATOM     34  H   LIG d   1       3.729  -1.840  -6.664  0.00  0.00     0.066 H 
BRANCH  30  35
ATOM     35  O   LIG d   1       3.398  -0.317 -10.903  0.00  0.00    -0.491 OA
BRANCH  35  36
ATOM     36  C   LIG d   1       4.521   0.309 -11.526  0.00  0.00     0.079 C 
ATOM     37  H   LIG d   1       4.631  -0.069 -12.542  0.00  0.00     0.066 H 
ATOM     38  H   LIG d   1       4.367   1.387 -11.554  0.00  0.00     0.066 H 
ATOM     39  H   LIG d   1       5.423   0.085 -10.956  0.00  0.00     0.066 H 
ENDBRANCH  35  36
ENDBRANCH  30  35
BRANCH  32  40
ATOM     40  O   LIG d   1       4.052  -2.379  -9.202  0.00  0.00    -0.491 OA
BRANCH  40  41
ATOM     41  C   LIG d   1       3.136  -3.475  -9.211  0.00  0.00     0.079 C 
ATOM     42  H   LIG d   1       2.732  -3.620  -8.210  0.00  0.00     0.066 H 
ATOM     43  H   LIG d   1       2.323  -3.263  -9.904  0.00  0.00     0.066 H 
ATOM     44  H   LIG d   1       3.656  -4.380  -9.527  0.00  0.00     0.066 H 
ENDBRANCH  40  41
ENDBRANCH  32  40
ENDBRANCH   1  26
TORSDOF 8
ENDMDL
MODEL 7
REMARK VINA RESULT:      -6.2      1.832      2.243
REMARK  8 active torsions:
REMARK  status: ('A' for Active; 'I' for Inactive)
REMARK    1  A    between atoms: C_1  and  O_2 
REMARK    2  A    between atoms: O_2  and  C_3 
REMARK    3  A    between atoms: C_6  and  C_11 
REMARK    4  A    between atoms: C_8  and  O_9 
REMARK    5  A    between atoms: O_9  and  C_10 
REMARK       I    between atoms: C_11  and  N_13 
REMARK    6  A    between atoms: N_13  and  C_14 
REMARK    7  A    between atoms: C_14  and  C_15 
REMARK    8  A    between atoms: C_15  and  N_16 
ROOT
ATOM      1  C   LIG d   1       9.400   3.172  -5.152  0.00  0.00     0.244 C 
ATOM      2  O   LIG d   1      10.347   2.733  -5.776  0.00  0.00    -0.270 OA
ATOM      3  N   LIG d   1       8.220   2.520  -5.168  0.00  0.00    -0.310 N 
ATOM      4  H   LIG d   1       7.465   2.871  -4.670  0.00  0.00     0.149 HD
ENDROOT
BRANCH   3   5
ATOM      5  C   LIG d   1       8.079   1.281  -5.937  0.00  0.00     0.030 C 
ATOM      6  H   LIG d   1       7.260   1.387  -6.648  0.00  0.00     0.048 H 
ATOM      7  H   LIG d   1       9.005   1.080  -6.476  0.00  0.00     0.048 H 
BRANCH   5   8
ATOM      8  C   LIG d   1       7.781   0.121  -4.985  0.00  0.00     0.039 C 
ATOM      9  H   LIG d   1       8.324  -0.765  -5.311  0.00  0.00     0.051 H 
ATOM     10  H   LIG d   1       8.095   0.389  -3.976  0.00  0.00     0.051 H 
BRANCH   8  11
ATOM     11  N   LIG d   1       6.343  -0.157  -4.990  0.00  0.00    -0.345 N 
ATOM     12  C   LIG d   1       5.473   0.158  -3.970  0.00  0.00     0.049 A 
ATOM     13  C   LIG d   1       4.193  -0.272  -4.368  0.00  0.00    -0.000 A 
ATOM     14  C   LIG d   1       5.630   0.775  -2.733  0.00  0.00    -0.038 A 
ATOM     15  C   LIG d   1       4.363  -0.875  -5.693  0.00  0.00    -0.036 A 
ATOM     16  C   LIG d   1       3.099  -0.076  -3.524  0.00  0.00    -0.053 A 
ATOM     17  C   LIG d   1       5.665  -0.775  -6.005  0.00  0.00     0.006 A 
ATOM     18  H   LIG d   1       3.589  -1.316  -6.301  0.00  0.00     0.064 H 
ATOM     19  H   LIG d   1       6.111  -1.130  -6.922  0.00  0.00     0.081 H 
ATOM     20  C   LIG d   1       3.277   0.525  -2.309  0.00  0.00    -0.061 A 
ATOM     21  H   LIG d   1       2.116  -0.409  -3.825  0.00  0.00     0.062 H 
ATOM     22  C   LIG d   1       4.537   0.953  -1.914  0.00  0.00    -0.060 A 
ATOM     23  H   LIG d   1       2.430   0.671  -1.655  0.00  0.00     0.062 H 
ATOM     24  H   LIG d   1       4.661   1.432  -0.953  0.00  0.00     0.062 H 
ATOM     25  H   LIG d   1       6.606   1.112  -2.416  0.00  0.00     0.064 H 
ENDBRANCH   8  11
ENDBRANCH   5   8
ENDBRANCH   3   5
BRANCH   1  26
ATOM     26  C   LIG d   1       9.543   4.420  -4.376  0.00  0.00     0.040 A 
ATOM     27  C   LIG d   1       9.317   5.655  -4.990  0.00  0.00    -0.046 A 
ATOM     28  C   LIG d   1       9.451   6.819  -4.265  0.00  0.00    -0.016 A 
ATOM     29  H   LIG d   1       9.037   5.698  -6.032  0.00  0.00     0.063 H 
ATOM     30  C   LIG d   1       9.810   6.769  -2.924  0.00  0.00     0.162 A 
ATOM     31  H   LIG d   1       9.276   7.773  -4.740  0.00  0.00     0.066 H 
ATOM     32  C   LIG d   1      10.042   5.540  -2.308  0.00  0.00     0.162 A 
ATOM     33  C   LIG d   1       9.905   4.369  -3.028  0.00  0.00    -0.004 A 
ATOM     34  H   LIG d   1      10.080   3.417  -2.550  0.00  0.00     0.066 H 
BRANCH  30  35
ATOM     35  O   LIG d   1       9.940   7.919  -2.214  0.00  0.00    -0.491 OA
BRANCH  35  36
ATOM     36  C   LIG d   1      10.954   8.832  -2.638  0.00  0.00     0.079 C 
ATOM     37  H   LIG d   1      10.874   9.755  -2.065  0.00  0.00     0.066 H 
ATOM     38  H   LIG d   1      11.936   8.387  -2.473  0.00  0.00     0.066 H 
ATOM     39  H   LIG d   1      10.827   9.049  -3.698  0.00  0.00     0.066 H 
ENDBRANCH  35  36
ENDBRANCH  30  35
BRANCH  32  40
ATOM     40  O   LIG d   1      10.398   5.494  -0.995  0.00  0.00    -0.491 OA
BRANCH  40  41
ATOM     41  C   LIG d   1      11.781   5.280  -0.706  0.00  0.00     0.079 C 
ATOM     42  H   LIG d   1      12.342   6.188  -0.925  0.00  0.00     0.066 H 
ATOM     43  H   LIG d   1      11.897   5.026   0.347  0.00  0.00     0.066 H 
ATOM     44  H   LIG d   1      12.157   4.462  -1.321  0.00  0.00     0.066 H 
ENDBRANCH  40  41
ENDBRANCH  32  40
ENDBRANCH   1  26
TORSDOF 8
ENDMDL
MODEL 8
REMARK VINA RESULT:      -6.1      1.756      2.320
REMARK  8 active torsions:
REMARK  status: ('A' for Active; 'I' for Inactive)
REMARK    1  A    between atoms: C_1  and  O_2 
REMARK    2  A    between atoms: O_2  and  C_3 
REMARK    3  A    between atoms: C_6  and  C_11 
REMARK    4  A    between atoms: C_8  and  O_9 
REMARK    5  A    between atoms: O_9  and  C_10 
REMARK       I    between atoms: C_11  and  N_13 
REMARK    6  A    between atoms: N_13  and  C_14 
REMARK    7  A    between atoms: C_14  and  C_15 
REMARK    8  A    between atoms: C_15  and  N_16 
ROOT
ATOM      1  C   LIG d   1       9.747   4.391  -3.358  0.00  0.00     0.244 C 
ATOM      2  O   LIG d   1      10.253   3.914  -2.360  0.00  0.00    -0.270 OA
ATOM      3  N   LIG d   1       9.040   3.607  -4.196  0.00  0.00    -0.310 N 
ATOM      4  H   LIG d   1       8.636   3.987  -4.992  0.00  0.00     0.149 HD
ENDROOT
BRANCH   3   5
ATOM      5  C   LIG d   1       8.881   2.180  -3.904  0.00  0.00     0.030 C 
ATOM      6  H   LIG d   1       9.847   1.682  -3.989  0.00  0.00     0.048 H 
ATOM      7  H   LIG d   1       8.496   2.056  -2.892  0.00  0.00     0.048 H 
BRANCH   5   8
ATOM      8  C   LIG d   1       7.900   1.562  -4.903  0.00  0.00     0.039 C 
ATOM      9  H   LIG d   1       7.093   2.266  -5.102  0.00  0.00     0.051 H 
ATOM     10  H   LIG d   1       8.423   1.334  -5.832  0.00  0.00     0.051 H 
BRANCH   8  11
ATOM     11  N   LIG d   1       7.344   0.328  -4.342  0.00  0.00    -0.345 N 
ATOM     12  C   LIG d   1       6.283   0.266  -3.466  0.00  0.00     0.049 A 
ATOM     13  C   LIG d   1       6.064  -1.094  -3.176  0.00  0.00    -0.000 A 
ATOM     14  C   LIG d   1       5.468   1.228  -2.880  0.00  0.00    -0.038 A 
ATOM     15  C   LIG d   1       7.075  -1.837  -3.931  0.00  0.00    -0.036 A 
ATOM     16  C   LIG d   1       5.036  -1.463  -2.307  0.00  0.00    -0.053 A 
ATOM     17  C   LIG d   1       7.805  -0.933  -4.604  0.00  0.00     0.006 A 
ATOM     18  H   LIG d   1       7.208  -2.908  -3.945  0.00  0.00     0.064 H 
ATOM     19  H   LIG d   1       8.634  -1.167  -5.257  0.00  0.00     0.081 H 
ATOM     20  C   LIG d   1       4.251  -0.501  -1.736  0.00  0.00    -0.061 A 
ATOM     21  H   LIG d   1       4.867  -2.506  -2.079  0.00  0.00     0.062 H 
ATOM     22  C   LIG d   1       4.461   0.841  -2.022  0.00  0.00    -0.060 A 
ATOM     23  H   LIG d   1       3.458  -0.788  -1.060  0.00  0.00     0.062 H 
ATOM     24  H   LIG d   1       3.828   1.590  -1.567  0.00  0.00     0.062 H 
ATOM     25  H   LIG d   1       5.623   2.275  -3.096  0.00  0.00     0.064 H 
ENDBRANCH   8  11
ENDBRANCH   5   8
ENDBRANCH   3   5
BRANCH   1  26
ATOM     26  C   LIG d   1       9.907   5.828  -3.651  0.00  0.00     0.040 A 
ATOM     27  C   LIG d   1       9.716   6.303  -4.951  0.00  0.00    -0.046 A 
ATOM     28  C   LIG d   1       9.866   7.646  -5.224  0.00  0.00    -0.016 A 
ATOM     29  H   LIG d   1       9.451   5.618  -5.743  0.00  0.00     0.063 H 
ATOM     30  C   LIG d   1      10.205   8.530  -4.208  0.00  0.00     0.162 A 
ATOM     31  H   LIG d   1       9.717   8.012  -6.229  0.00  0.00     0.066 H 
ATOM     32  C   LIG d   1      10.402   8.061  -2.910  0.00  0.00     0.162 A 
ATOM     33  C   LIG d   1      10.250   6.718  -2.630  0.00  0.00    -0.004 A 
ATOM     34  H   LIG d   1      10.398   6.355  -1.624  0.00  0.00     0.066 H 
BRANCH  30  35
ATOM     35  O   LIG d   1      10.351   9.852  -4.481  0.00  0.00    -0.491 OA
BRANCH  35  36
ATOM     36  C   LIG d   1       9.155  10.620  -4.632  0.00  0.00     0.079 C 
ATOM     37  H   LIG d   1       8.304  10.040  -4.277  0.00  0.00     0.066 H 
ATOM     38  H   LIG d   1       9.238  11.537  -4.049  0.00  0.00     0.066 H 
ATOM     39  H   LIG d   1       9.013  10.868  -5.683  0.00  0.00     0.066 H 
ENDBRANCH  35  36
ENDBRANCH  30  35
BRANCH  32  40
ATOM     40  O   LIG d   1      10.740   8.929  -1.918  0.00  0.00    -0.491 OA
BRANCH  40  41
ATOM     41  C   LIG d   1       9.968   8.873  -0.717  0.00  0.00     0.079 C 
ATOM     42  H   LIG d   1       9.818   7.833  -0.431  0.00  0.00     0.066 H 
ATOM     43  H   LIG d   1      10.495   9.397   0.079  0.00  0.00     0.066 H 
ATOM     44  H   LIG d   1       9.000   9.347  -0.886  0.00  0.00     0.066 H 
ENDBRANCH  40  41
ENDBRANCH  32  40
ENDBRANCH   1  26
TORSDOF 8
ENDMDL
MODEL 9
REMARK VINA RESULT:      -6.1      2.755      8.265
REMARK  8 active torsions:
REMARK  status: ('A' for Active; 'I' for Inactive)
REMARK    1  A    between atoms: C_1  and  O_2 
REMARK    2  A    between atoms: O_2  and  C_3 
REMARK    3  A    between atoms: C_6  and  C_11 
REMARK    4  A    between atoms: C_8  and  O_9 
REMARK    5  A    between atoms: O_9  and  C_10 
REMARK       I    between atoms: C_11  and  N_13 
REMARK    6  A    between atoms: N_13  and  C_14 
REMARK    7  A    between atoms: C_14  and  C_15 
REMARK    8  A    between atoms: C_15  and  N_16 
ROOT
ATOM      1  C   LIG d   1       8.134   1.824  -4.076  0.00  0.00     0.244 C 
ATOM      2  O   LIG d   1       7.949   2.655  -4.944  0.00  0.00    -0.270 OA
ATOM      3  N   LIG d   1       9.343   1.721  -3.488  0.00  0.00    -0.310 N 
ATOM      4  H   LIG d   1       9.490   1.059  -2.795  0.00  0.00     0.149 HD
ENDROOT
BRANCH   3   5
ATOM      5  C   LIG d   1      10.433   2.612  -3.895  0.00  0.00     0.030 C 
ATOM      6  H   LIG d   1      11.197   2.035  -4.417  0.00  0.00     0.048 H 
ATOM      7  H   LIG d   1      10.044   3.384  -4.558  0.00  0.00     0.048 H 
BRANCH   5   8
ATOM      8  C   LIG d   1      11.047   3.265  -2.655  0.00  0.00     0.039 C 
ATOM      9  H   LIG d   1      10.777   2.689  -1.770  0.00  0.00     0.051 H 
ATOM     10  H   LIG d   1      12.133   3.289  -2.756  0.00  0.00     0.051 H 
BRANCH   8  11
ATOM     11  N   LIG d   1      10.540   4.633  -2.521  0.00  0.00    -0.345 N 
ATOM     12  C   LIG d   1      10.730   5.443  -1.425  0.00  0.00     0.049 A 
ATOM     13  C   LIG d   1      10.092   6.667  -1.697  0.00  0.00    -0.000 A 
ATOM     14  C   LIG d   1      11.389   5.273  -0.211  0.00  0.00    -0.038 A 
ATOM     15  C   LIG d   1       9.497   6.526  -3.028  0.00  0.00    -0.036 A 
ATOM     16  C   LIG d   1      10.124   7.695  -0.753  0.00  0.00    -0.053 A 
ATOM     17  C   LIG d   1       9.800   5.292  -3.464  0.00  0.00     0.006 A 
ATOM     18  H   LIG d   1       8.925   7.271  -3.558  0.00  0.00     0.064 H 
ATOM     19  H   LIG d   1       9.504   4.882  -4.419  0.00  0.00     0.081 H 
ATOM     20  C   LIG d   1      10.770   7.504   0.437  0.00  0.00    -0.061 A 
ATOM     21  H   LIG d   1       9.631   8.634  -0.957  0.00  0.00     0.062 H 
ATOM     22  C   LIG d   1      11.404   6.300   0.708  0.00  0.00    -0.060 A 
ATOM     23  H   LIG d   1      10.791   8.298   1.168  0.00  0.00     0.062 H 
ATOM     24  H   LIG d   1      11.916   6.166   1.650  0.00  0.00     0.062 H 
ATOM     25  H   LIG d   1      11.886   4.340   0.010  0.00  0.00     0.064 H 
ENDBRANCH   8  11
ENDBRANCH   5   8
ENDBRANCH   3   5
BRANCH   1  26
ATOM     26  C   LIG d   1       7.035   0.929  -3.665  0.00  0.00     0.040 A 
ATOM     27  C   LIG d   1       5.910   1.452  -3.024  0.00  0.00    -0.046 A 
ATOM     28  C   LIG d   1       4.884   0.614  -2.640  0.00  0.00    -0.016 A 
ATOM     29  H   LIG d   1       5.843   2.511  -2.827  0.00  0.00     0.063 H 
ATOM     30  C   LIG d   1       4.965  -0.749  -2.893  0.00  0.00     0.162 A 
ATOM     31  H   LIG d   1       4.014   1.019  -2.144  0.00  0.00     0.066 H 
ATOM     32  C   LIG d   1       6.088  -1.277  -3.528  0.00  0.00     0.162 A 
ATOM     33  C   LIG d   1       7.117  -0.443  -3.918  0.00  0.00    -0.004 A 
ATOM     34  H   LIG d   1       7.985  -0.850  -4.415  0.00  0.00     0.066 H 
BRANCH  30  35
ATOM     35  O   LIG d   1       3.952  -1.569  -2.514  0.00  0.00    -0.491 OA
BRANCH  35  36
ATOM     36  C   LIG d   1       2.623  -1.144  -2.822  0.00  0.00     0.079 C 
ATOM     37  H   LIG d   1       1.938  -1.508  -2.056  0.00  0.00     0.066 H 
ATOM     38  H   LIG d   1       2.587  -0.055  -2.852  0.00  0.00     0.066 H 
ATOM     39  H   LIG d   1       2.329  -1.545  -3.792  0.00  0.00     0.066 H 
ENDBRANCH  35  36
ENDBRANCH  30  35
BRANCH  32  40
ATOM     40  O   LIG d   1       6.167  -2.614  -3.769  0.00  0.00    -0.491 OA
BRANCH  40  41
ATOM     41  C   LIG d   1       7.347  -3.086  -4.422  0.00  0.00     0.079 C 
ATOM     42  H   LIG d   1       7.193  -4.113  -4.752  0.00  0.00     0.066 H 
ATOM     43  H   LIG d   1       7.563  -2.456  -5.284  0.00  0.00     0.066 H 
ATOM     44  H   LIG d   1       8.185  -3.050  -3.726  0.00  0.00     0.066 H 
ENDBRANCH  40  41
ENDBRANCH  32  40
ENDBRANCH   1  26
TORSDOF 8
ENDMDL
MODEL 10
REMARK VINA RESULT:      -6.0      6.534     10.743
REMARK  8 active torsions:
REMARK  status: ('A' for Active; 'I' for Inactive)
REMARK    1  A    between atoms: C_1  and  O_2 
REMARK    2  A    between atoms: O_2  and  C_3 
REMARK    3  A    between atoms: C_6  and  C_11 
REMARK    4  A    between atoms: C_8  and  O_9 
REMARK    5  A    between atoms: O_9  and  C_10 
REMARK       I    between atoms: C_11  and  N_13 
REMARK    6  A    between atoms: N_13  and  C_14 
REMARK    7  A    between atoms: C_14  and  C_15 
REMARK    8  A    between atoms: C_15  and  N_16 
ROOT
ATOM      1  C   LIG d   1       2.802   0.306  -7.236  0.00  0.00     0.244 C 
ATOM      2  O   LIG d   1       3.189   1.456  -7.307  0.00  0.00    -0.270 OA
ATOM      3  N   LIG d   1       2.453  -0.217  -6.044  0.00  0.00    -0.310 N 
ATOM      4  H   LIG d   1       2.144  -1.135  -5.988  0.00  0.00     0.149 HD
ENDROOT
BRANCH   3   5
ATOM      5  C   LIG d   1       2.539   0.603  -4.832  0.00  0.00     0.030 C 
ATOM      6  H   LIG d   1       3.320   1.353  -4.956  0.00  0.00     0.048 H 
ATOM      7  H   LIG d   1       1.584   1.097  -4.658  0.00  0.00     0.048 H 
BRANCH   5   8
ATOM      8  C   LIG d   1       2.877  -0.290  -3.636  0.00  0.00     0.039 C 
ATOM      9  H   LIG d   1       2.492   0.164  -2.724  0.00  0.00     0.051 H 
ATOM     10  H   LIG d   1       2.420  -1.271  -3.774  0.00  0.00     0.051 H 
BRANCH   8  11
ATOM     11  N   LIG d   1       4.330  -0.439  -3.532  0.00  0.00    -0.345 N 
ATOM     12  C   LIG d   1       5.044  -1.542  -3.945  0.00  0.00     0.049 A 
ATOM     13  C   LIG d   1       6.400  -1.284  -3.674  0.00  0.00    -0.000 A 
ATOM     14  C   LIG d   1       4.684  -2.750  -4.532  0.00  0.00    -0.038 A 
ATOM     15  C   LIG d   1       6.445   0.046  -3.060  0.00  0.00    -0.036 A 
ATOM     16  C   LIG d   1       7.368  -2.236  -3.995  0.00  0.00    -0.053 A 
ATOM     17  C   LIG d   1       5.180   0.495  -3.005  0.00  0.00     0.006 A 
ATOM     18  H   LIG d   1       7.326   0.567  -2.719  0.00  0.00     0.064 H 
ATOM     19  H   LIG d   1       4.879   1.451  -2.603  0.00  0.00     0.081 H 
ATOM     20  C   LIG d   1       6.992  -3.421  -4.565  0.00  0.00    -0.061 A 
ATOM     21  H   LIG d   1       8.410  -2.043  -3.784  0.00  0.00     0.062 H 
ATOM     22  C   LIG d   1       5.656  -3.678  -4.837  0.00  0.00    -0.060 A 
ATOM     23  H   LIG d   1       7.742  -4.159  -4.809  0.00  0.00     0.062 H 
ATOM     24  H   LIG d   1       5.375  -4.617  -5.293  0.00  0.00     0.062 H 
ATOM     25  H   LIG d   1       3.647  -2.960  -4.749  0.00  0.00     0.064 H 
ENDBRANCH   8  11
ENDBRANCH   5   8
ENDBRANCH   3   5
BRANCH   1  26
ATOM     26  C   LIG d   1       2.715  -0.519  -8.458  0.00  0.00     0.040 A 
ATOM     27  C   LIG d   1       1.988  -0.061  -9.560  0.00  0.00    -0.046 A 
ATOM     28  C   LIG d   1       1.907  -0.832 -10.700  0.00  0.00    -0.016 A 
ATOM     29  H   LIG d   1       1.490   0.896  -9.519  0.00  0.00     0.063 H 
ATOM     30  C   LIG d   1       2.547  -2.063 -10.757  0.00  0.00     0.162 A 
ATOM     31  H   LIG d   1       1.345  -0.477 -11.551  0.00  0.00     0.066 H 
ATOM     32  C   LIG d   1       3.270  -2.526  -9.658  0.00  0.00     0.162 A 
ATOM     33  C   LIG d   1       3.359  -1.757  -8.515  0.00  0.00    -0.004 A 
ATOM     34  H   LIG d   1       3.922  -2.114  -7.665  0.00  0.00     0.066 H 
BRANCH  30  35
ATOM     35  O   LIG d   1       2.465  -2.818 -11.882  0.00  0.00    -0.491 OA
BRANCH  35  36
ATOM     36  C   LIG d   1       1.956  -2.180 -13.056  0.00  0.00     0.079 C 
ATOM     37  H   LIG d   1       2.046  -1.100 -12.950  0.00  0.00     0.066 H 
ATOM     38  H   LIG d   1       2.528  -2.509 -13.923  0.00  0.00     0.066 H 
ATOM     39  H   LIG d   1       0.908  -2.447 -13.188  0.00  0.00     0.066 H 
ENDBRANCH  35  36
ENDBRANCH  30  35
BRANCH  32  40
ATOM     40  O   LIG d   1       3.892  -3.735  -9.715  0.00  0.00    -0.491 OA
BRANCH  40  41
ATOM     41  C   LIG d   1       3.324  -4.794  -8.941  0.00  0.00     0.079 C 
ATOM     42  H   LIG d   1       3.462  -5.739  -9.464  0.00  0.00     0.066 H 
ATOM     43  H   LIG d   1       3.817  -4.840  -7.971  0.00  0.00     0.066 H 
ATOM     44  H   LIG d   1       2.259  -4.608  -8.800  0.00  0.00     0.066 H 
ENDBRANCH  40  41
ENDBRANCH  32  40
ENDBRANCH   1  26
TORSDOF 8
ENDMDL
