MODEL 1
REMARK VINA RESULT:      -6.5      0.000      0.000
REMARK  5 active torsions:
REMARK  status: ('A' for Active; 'I' for Inactive)
REMARK    1  A    between atoms: C_1  and  C_2 
REMARK    2  A    between atoms: C_9  and  C_28 
REMARK    3  A    between atoms: C_10  and  C_16 
REMARK    4  A    between atoms: C_16  and  C_17 
REMARK       I    between atoms: C_17  and  N_19 
REMARK    5  A    between atoms: C_23  and  C_26 
ROOT
ATOM      1  C   LIG d   1       3.878  -0.132  -2.764  0.00  0.00    -0.005 A 
ATOM      2  C   LIG d   1       4.437   0.990  -2.297  0.00  0.00     0.096 A 
ATOM      3  O   LIG d   1       5.767   0.966  -2.492  0.00  0.00    -0.463 OA
ATOM      4  C   LIG d   1       6.144  -0.178  -3.101  0.00  0.00     0.139 A 
ATOM      5  C   LIG d   1       4.978  -0.941  -3.309  0.00  0.00     0.024 A 
ATOM      6  C   LIG d   1       5.050  -2.183  -3.923  0.00  0.00    -0.040 A 
ATOM      7  C   LIG d   1       6.291  -2.672  -4.332  0.00  0.00     0.022 A 
ATOM      8  C   LIG d   1       6.404  -3.980  -4.984  0.00  0.00    -0.029 A 
ATOM      9  C   LIG d   1       7.638  -4.404  -5.361  0.00  0.00     0.049 A 
ATOM     10  C   LIG d   1       8.763  -3.589  -5.120  0.00  0.00     0.341 A 
ATOM     11  O   LIG d   1       9.864  -3.982  -5.464  0.00  0.00    -0.245 OA
ATOM     12  O   LIG d   1       8.656  -2.393  -4.523  0.00  0.00    -0.422 OA
ATOM     13  C   LIG d   1       7.458  -1.908  -4.122  0.00  0.00     0.143 A 
ATOM     14  C   LIG d   1       7.374  -0.668  -3.514  0.00  0.00     0.024 A 
ATOM     15  H   LIG d   1       3.896   1.800  -1.829  0.00  0.00     0.103 H 
ATOM     16  H   LIG d   1       4.155  -2.767  -4.082  0.00  0.00     0.063 H 
ATOM     17  H   LIG d   1       8.267  -0.082  -3.358  0.00  0.00     0.069 H 
ENDROOT
BRANCH   9  18
ATOM     18  C   LIG d   1       7.803  -5.743  -6.034  0.00  0.00     0.056 C 
ATOM     19  H   LIG d   1       6.925  -5.953  -6.645  0.00  0.00     0.041 H 
ATOM     20  H   LIG d   1       8.690  -5.723  -6.667  0.00  0.00     0.041 H 
BRANCH  18  21
ATOM     21  C   LIG d   1       7.956  -6.816  -4.987  0.00  0.00     0.220 C 
ATOM     22  O   LIG d   1       8.721  -6.654  -4.060  0.00  0.00    -0.275 OA
ATOM     23  N   LIG d   1       7.242  -7.955  -5.081  0.00  0.00    -0.301 N 
ATOM     24  C   LIG d   1       7.379  -9.010  -4.068  0.00  0.00     0.023 C 
ATOM     25  C   LIG d   1       6.306  -8.162  -6.194  0.00  0.00     0.015 C 
ATOM     26  C   LIG d   1       5.990  -9.357  -3.524  0.00  0.00     0.014 C 
ATOM     27  H   LIG d   1       7.826  -9.895  -4.521  0.00  0.00     0.047 H 
ATOM     28  H   LIG d   1       8.015  -8.656  -3.255  0.00  0.00     0.047 H 
ATOM     29  C   LIG d   1       5.067  -9.721  -4.689  0.00  0.00    -0.042 C 
ATOM     30  H   LIG d   1       5.583  -8.497  -2.991  0.00  0.00     0.038 H 
ATOM     31  C   LIG d   1       4.932  -8.521  -5.629  0.00  0.00    -0.036 C 
ATOM     32  H   LIG d   1       5.488 -10.564  -5.235  0.00  0.00     0.027 H 
ATOM     33  H   LIG d   1       4.084  -9.991  -4.303  0.00  0.00     0.027 H 
ATOM     34  H   LIG d   1       4.256  -8.772  -6.447  0.00  0.00     0.028 H 
ATOM     35  H   LIG d   1       4.536  -7.669  -5.078  0.00  0.00     0.028 H 
ATOM     36  H   LIG d   1       6.230  -7.248  -6.783  0.00  0.00     0.046 H 
ATOM     37  H   LIG d   1       6.663  -8.977  -6.825  0.00  0.00     0.046 H 
BRANCH  26  38
ATOM     38  C   LIG d   1       6.097 -10.528  -2.582  0.00  0.00     0.046 C 
ATOM     39  O   LIG d   1       6.150 -11.653  -3.020  0.00  0.00    -0.549 OA
ATOM     40  O   LIG d   1       6.131 -10.322  -1.256  0.00  0.00    -0.549 OA
ENDBRANCH  26  38
ENDBRANCH  18  21
ENDBRANCH   9  18
BRANCH   8  41
ATOM     41  C   LIG d   1       5.185  -4.830  -5.230  0.00  0.00    -0.038 C 
ATOM     42  H   LIG d   1       5.479  -5.753  -5.730  0.00  0.00     0.028 H 
ATOM     43  H   LIG d   1       4.710  -5.069  -4.277  0.00  0.00     0.028 H 
ATOM     44  H   LIG d   1       4.482  -4.284  -5.859  0.00  0.00     0.028 H 
ENDBRANCH   8  41
BRANCH   1  45
ATOM     45  C   LIG d   1       2.415  -0.494  -2.739  0.00  0.00    -0.036 C 
ATOM     46  H   LIG d   1       1.828   0.380  -2.457  0.00  0.00     0.028 H 
ATOM     47  H   LIG d   1       2.108  -0.835  -3.727  0.00  0.00     0.028 H 
ATOM     48  H   LIG d   1       2.251  -1.292  -2.013  0.00  0.00     0.028 H 
ENDBRANCH   1  45
TORSDOF 5
ENDMDL
MODEL 2
REMARK VINA RESULT:      -6.4      6.838      9.603
REMARK  5 active torsions:
REMARK  status: ('A' for Active; 'I' for Inactive)
REMARK    1  A    between atoms: C_1  and  C_2 
REMARK    2  A    between atoms: C_9  and  C_28 
REMARK    3  A    between atoms: C_10  and  C_16 
REMARK    4  A    between atoms: C_16  and  C_17 
REMARK       I    between atoms: C_17  and  N_19 
REMARK    5  A    between atoms: C_23  and  C_26 
ROOT
ATOM      1  C   LIG d   1      12.034 -12.224   4.568  0.00  0.00    -0.005 A 
ATOM      2  C   LIG d   1      12.682 -11.351   5.348  0.00  0.00     0.096 A 
ATOM      3  O   LIG d   1      12.725 -10.142   4.760  0.00  0.00    -0.463 OA
ATOM      4  C   LIG d   1      12.103 -10.166   3.563  0.00  0.00     0.139 A 
ATOM      5  C   LIG d   1      11.629 -11.479   3.367  0.00  0.00     0.024 A 
ATOM      6  C   LIG d   1      10.940 -11.812   2.210  0.00  0.00    -0.040 A 
ATOM      7  C   LIG d   1      10.720 -10.835   1.239  0.00  0.00     0.022 A 
ATOM      8  C   LIG d   1       9.996 -11.153   0.005  0.00  0.00    -0.029 A 
ATOM      9  C   LIG d   1       9.811 -10.161  -0.903  0.00  0.00     0.049 A 
ATOM     10  C   LIG d   1      10.313  -8.869  -0.643  0.00  0.00     0.341 A 
ATOM     11  O   LIG d   1      10.140  -7.989  -1.467  0.00  0.00    -0.245 OA
ATOM     12  O   LIG d   1      10.975  -8.582   0.487  0.00  0.00    -0.422 OA
ATOM     13  C   LIG d   1      11.195  -9.521   1.436  0.00  0.00     0.143 A 
ATOM     14  C   LIG d   1      11.877  -9.198   2.596  0.00  0.00     0.024 A 
ATOM     15  H   LIG d   1      13.110 -11.585   6.312  0.00  0.00     0.103 H 
ATOM     16  H   LIG d   1      10.578 -12.820   2.062  0.00  0.00     0.063 H 
ATOM     17  H   LIG d   1      12.235  -8.191   2.747  0.00  0.00     0.069 H 
ENDROOT
BRANCH   9  18
ATOM     18  C   LIG d   1       9.073 -10.441  -2.187  0.00  0.00     0.056 C 
ATOM     19  H   LIG d   1       9.420  -9.757  -2.962  0.00  0.00     0.041 H 
ATOM     20  H   LIG d   1       9.262 -11.469  -2.499  0.00  0.00     0.041 H 
BRANCH  18  21
ATOM     21  C   LIG d   1       7.595 -10.247  -1.969  0.00  0.00     0.220 C 
ATOM     22  O   LIG d   1       7.203  -9.417  -1.176  0.00  0.00    -0.275 OA
ATOM     23  N   LIG d   1       6.708 -10.994  -2.657  0.00  0.00    -0.301 N 
ATOM     24  C   LIG d   1       5.263 -10.815  -2.456  0.00  0.00     0.023 C 
ATOM     25  C   LIG d   1       7.167 -11.998  -3.626  0.00  0.00     0.015 C 
ATOM     26  C   LIG d   1       4.603 -10.568  -3.816  0.00  0.00     0.014 C 
ATOM     27  H   LIG d   1       4.844 -11.714  -2.003  0.00  0.00     0.047 H 
ATOM     28  H   LIG d   1       5.088  -9.961  -1.801  0.00  0.00     0.047 H 
ATOM     29  C   LIG d   1       4.968 -11.707  -4.770  0.00  0.00    -0.042 C 
ATOM     30  H   LIG d   1       4.956  -9.621  -4.225  0.00  0.00     0.038 H 
ATOM     31  C   LIG d   1       6.486 -11.742  -4.969  0.00  0.00    -0.036 C 
ATOM     32  H   LIG d   1       4.637 -12.655  -4.348  0.00  0.00     0.027 H 
ATOM     33  H   LIG d   1       4.480 -11.546  -5.731  0.00  0.00     0.027 H 
ATOM     34  H   LIG d   1       6.744 -12.538  -5.667  0.00  0.00     0.028 H 
ATOM     35  H   LIG d   1       6.822 -10.784  -5.368  0.00  0.00     0.028 H 
ATOM     36  H   LIG d   1       8.248 -11.922  -3.747  0.00  0.00     0.046 H 
ATOM     37  H   LIG d   1       6.907 -12.995  -3.271  0.00  0.00     0.046 H 
BRANCH  26  38
ATOM     38  C   LIG d   1       3.107 -10.515  -3.646  0.00  0.00     0.046 C 
ATOM     39  O   LIG d   1       2.609  -9.665  -2.946  0.00  0.00    -0.549 OA
ATOM     40  O   LIG d   1       2.328 -11.412  -4.270  0.00  0.00    -0.549 OA
ENDBRANCH  26  38
ENDBRANCH  18  21
ENDBRANCH   9  18
BRANCH   8  41
ATOM     41  C   LIG d   1       9.469 -12.542  -0.247  0.00  0.00    -0.038 C 
ATOM     42  H   LIG d   1      10.282 -13.262  -0.151  0.00  0.00     0.028 H 
ATOM     43  H   LIG d   1       8.690 -12.773   0.480  0.00  0.00     0.028 H 
ATOM     44  H   LIG d   1       9.053 -12.595  -1.253  0.00  0.00     0.028 H 
ENDBRANCH   8  41
BRANCH   1  45
ATOM     45  C   LIG d   1      11.769 -13.678   4.861  0.00  0.00    -0.036 C 
ATOM     46  H   LIG d   1      12.203 -13.940   5.826  0.00  0.00     0.028 H 
ATOM     47  H   LIG d   1      10.694 -13.854   4.887  0.00  0.00     0.028 H 
ATOM     48  H   LIG d   1      12.219 -14.294   4.082  0.00  0.00     0.028 H 
ENDBRANCH   1  45
TORSDOF 5
ENDMDL
MODEL 3
REMARK VINA RESULT:      -6.3      7.244      9.720
REMARK  5 active torsions:
REMARK  status: ('A' for Active; 'I' for Inactive)
REMARK    1  A    between atoms: C_1  and  C_2 
REMARK    2  A    between atoms: C_9  and  C_28 
REMARK    3  A    between atoms: C_10  and  C_16 
REMARK    4  A    between atoms: C_16  and  C_17 
REMARK       I    between atoms: C_17  and  N_19 
REMARK    5  A    between atoms: C_23  and  C_26 
ROOT
ATOM      1  C   LIG d   1       1.590  -2.809 -14.629  0.00  0.00    -0.005 A 
ATOM      2  C   LIG d   1       2.332  -2.739 -15.741  0.00  0.00     0.096 A 
ATOM      3  O   LIG d   1       3.389  -1.931 -15.547  0.00  0.00    -0.463 OA
ATOM      4  C   LIG d   1       3.390  -1.432 -14.293  0.00  0.00     0.139 A 
ATOM      5  C   LIG d   1       2.257  -1.954 -13.637  0.00  0.00     0.024 A 
ATOM      6  C   LIG d   1       1.990  -1.615 -12.319  0.00  0.00    -0.040 A 
ATOM      7  C   LIG d   1       2.854  -0.750 -11.646  0.00  0.00     0.022 A 
ATOM      8  C   LIG d   1       2.601  -0.371 -10.253  0.00  0.00    -0.029 A 
ATOM      9  C   LIG d   1       3.476   0.473  -9.650  0.00  0.00     0.049 A 
ATOM     10  C   LIG d   1       4.590   0.958 -10.366  0.00  0.00     0.341 A 
ATOM     11  O   LIG d   1       5.367   1.715  -9.812  0.00  0.00    -0.245 OA
ATOM     12  O   LIG d   1       4.817   0.609 -11.641  0.00  0.00    -0.422 OA
ATOM     13  C   LIG d   1       3.987  -0.228 -12.303  0.00  0.00     0.143 A 
ATOM     14  C   LIG d   1       4.247  -0.577 -13.617  0.00  0.00     0.024 A 
ATOM     15  H   LIG d   1       2.112  -3.257 -16.663  0.00  0.00     0.103 H 
ATOM     16  H   LIG d   1       1.120  -2.016 -11.818  0.00  0.00     0.063 H 
ATOM     17  H   LIG d   1       5.118  -0.180 -14.117  0.00  0.00     0.069 H 
ENDROOT
BRANCH   9  18
ATOM     18  C   LIG d   1       3.257   0.891  -8.218  0.00  0.00     0.056 C 
ATOM     19  H   LIG d   1       3.657   1.894  -8.068  0.00  0.00     0.041 H 
ATOM     20  H   LIG d   1       2.189   0.889  -7.999  0.00  0.00     0.041 H 
BRANCH  18  21
ATOM     21  C   LIG d   1       3.960  -0.074  -7.299  0.00  0.00     0.220 C 
ATOM     22  O   LIG d   1       4.897  -0.727  -7.708  0.00  0.00    -0.275 OA
ATOM     23  N   LIG d   1       3.548  -0.212  -6.023  0.00  0.00    -0.301 N 
ATOM     24  C   LIG d   1       4.224  -1.148  -5.115  0.00  0.00     0.023 C 
ATOM     25  C   LIG d   1       2.419   0.577  -5.512  0.00  0.00     0.015 C 
ATOM     26  C   LIG d   1       4.646  -0.393  -3.851  0.00  0.00     0.014 C 
ATOM     27  H   LIG d   1       3.541  -1.956  -4.849  0.00  0.00     0.047 H 
ATOM     28  H   LIG d   1       5.105  -1.563  -5.607  0.00  0.00     0.047 H 
ATOM     29  C   LIG d   1       3.423   0.298  -3.244  0.00  0.00    -0.042 C 
ATOM     30  H   LIG d   1       5.398   0.354  -4.107  0.00  0.00     0.038 H 
ATOM     31  C   LIG d   1       2.857   1.309  -4.244  0.00  0.00    -0.036 C 
ATOM     32  H   LIG d   1       2.663  -0.446  -3.011  0.00  0.00     0.027 H 
ATOM     33  H   LIG d   1       3.716   0.817  -2.331  0.00  0.00     0.027 H 
ATOM     34  H   LIG d   1       2.001   1.819  -3.803  0.00  0.00     0.028 H 
ATOM     35  H   LIG d   1       3.625   2.040  -4.497  0.00  0.00     0.028 H 
ATOM     36  H   LIG d   1       2.111   1.304  -6.263  0.00  0.00     0.046 H 
ATOM     37  H   LIG d   1       1.586  -0.086  -5.279  0.00  0.00     0.046 H 
BRANCH  26  38
ATOM     38  C   LIG d   1       5.221  -1.365  -2.853  0.00  0.00     0.046 C 
ATOM     39  O   LIG d   1       4.546  -1.750  -1.928  0.00  0.00    -0.549 OA
ATOM     40  O   LIG d   1       6.482  -1.801  -2.992  0.00  0.00    -0.549 OA
ENDBRANCH  26  38
ENDBRANCH  18  21
ENDBRANCH   9  18
BRANCH   8  41
ATOM     41  C   LIG d   1       1.403  -0.906  -9.511  0.00  0.00    -0.038 C 
ATOM     42  H   LIG d   1       0.726  -0.086  -9.275  0.00  0.00     0.028 H 
ATOM     43  H   LIG d   1       0.887  -1.637 -10.133  0.00  0.00     0.028 H 
ATOM     44  H   LIG d   1       1.732  -1.382  -8.587  0.00  0.00     0.028 H 
ENDBRANCH   8  41
BRANCH   1  45
ATOM     45  C   LIG d   1       0.326  -3.606 -14.432  0.00  0.00    -0.036 C 
ATOM     46  H   LIG d   1       0.544  -4.492 -13.837  0.00  0.00     0.028 H 
ATOM     47  H   LIG d   1      -0.413  -2.993 -13.917  0.00  0.00     0.028 H 
ATOM     48  H   LIG d   1      -0.068  -3.909 -15.403  0.00  0.00     0.028 H 
ENDBRANCH   1  45
TORSDOF 5
ENDMDL
MODEL 4
REMARK VINA RESULT:      -6.3      5.564      9.969
REMARK  5 active torsions:
REMARK  status: ('A' for Active; 'I' for Inactive)
REMARK    1  A    between atoms: C_1  and  C_2 
REMARK    2  A    between atoms: C_9  and  C_28 
REMARK    3  A    between atoms: C_10  and  C_16 
REMARK    4  A    between atoms: C_16  and  C_17 
REMARK       I    between atoms: C_17  and  N_19 
REMARK    5  A    between atoms: C_23  and  C_26 
ROOT
ATOM      1  C   LIG d   1       4.274  -0.195  -2.534  0.00  0.00    -0.005 A 
ATOM      2  C   LIG d   1       3.809  -1.445  -2.419  0.00  0.00     0.096 A 
ATOM      3  O   LIG d   1       4.689  -2.319  -2.938  0.00  0.00    -0.463 OA
ATOM      4  C   LIG d   1       5.777  -1.682  -3.418  0.00  0.00     0.139 A 
ATOM      5  C   LIG d   1       5.584  -0.304  -3.193  0.00  0.00     0.024 A 
ATOM      6  C   LIG d   1       6.547   0.614  -3.584  0.00  0.00    -0.040 A 
ATOM      7  C   LIG d   1       7.712   0.161  -4.204  0.00  0.00     0.022 A 
ATOM      8  C   LIG d   1       8.750   1.104  -4.631  0.00  0.00    -0.029 A 
ATOM      9  C   LIG d   1       9.862   0.606  -5.228  0.00  0.00     0.049 A 
ATOM     10  C   LIG d   1       9.991  -0.785  -5.422  0.00  0.00     0.341 A 
ATOM     11  O   LIG d   1      10.994  -1.219  -5.960  0.00  0.00    -0.245 OA
ATOM     12  O   LIG d   1       9.038  -1.645  -5.031  0.00  0.00    -0.422 OA
ATOM     13  C   LIG d   1       7.904  -1.218  -4.430  0.00  0.00     0.143 A 
ATOM     14  C   LIG d   1       6.940  -2.126  -4.030  0.00  0.00     0.024 A 
ATOM     15  H   LIG d   1       2.861  -1.712  -1.975  0.00  0.00     0.103 H 
ATOM     16  H   LIG d   1       6.396   1.670  -3.412  0.00  0.00     0.063 H 
ATOM     17  H   LIG d   1       7.091  -3.182  -4.199  0.00  0.00     0.069 H 
ENDROOT
BRANCH   9  18
ATOM     18  C   LIG d   1      10.957   1.537  -5.684  0.00  0.00     0.056 C 
ATOM     19  H   LIG d   1      11.065   2.349  -4.964  0.00  0.00     0.041 H 
ATOM     20  H   LIG d   1      11.895   0.987  -5.755  0.00  0.00     0.041 H 
BRANCH  18  21
ATOM     21  C   LIG d   1      10.603   2.105  -7.033  0.00  0.00     0.220 C 
ATOM     22  O   LIG d   1      10.179   1.377  -7.906  0.00  0.00    -0.275 OA
ATOM     23  N   LIG d   1      10.757   3.423  -7.271  0.00  0.00    -0.301 N 
ATOM     24  C   LIG d   1      10.416   3.992  -8.582  0.00  0.00     0.023 C 
ATOM     25  C   LIG d   1      11.262   4.319  -6.222  0.00  0.00     0.015 C 
ATOM     26  C   LIG d   1       9.442   5.157  -8.376  0.00  0.00     0.014 C 
ATOM     27  H   LIG d   1      11.321   4.354  -9.069  0.00  0.00     0.047 H 
ATOM     28  H   LIG d   1       9.948   3.227  -9.203  0.00  0.00     0.047 H 
ATOM     29  C   LIG d   1      10.053   6.160  -7.396  0.00  0.00    -0.042 C 
ATOM     30  H   LIG d   1       8.502   4.778  -7.973  0.00  0.00     0.038 H 
ATOM     31  C   LIG d   1      10.284   5.479  -6.044  0.00  0.00    -0.036 C 
ATOM     32  H   LIG d   1      11.004   6.518  -7.788  0.00  0.00     0.027 H 
ATOM     33  H   LIG d   1       9.372   7.001  -7.266  0.00  0.00     0.027 H 
ATOM     34  H   LIG d   1      10.697   6.200  -5.339  0.00  0.00     0.028 H 
ATOM     35  H   LIG d   1       9.337   5.097  -5.663  0.00  0.00     0.028 H 
ATOM     36  H   LIG d   1      11.350   3.771  -5.284  0.00  0.00     0.046 H 
ATOM     37  H   LIG d   1      12.238   4.708  -6.513  0.00  0.00     0.046 H 
BRANCH  26  38
ATOM     38  C   LIG d   1       9.185   5.836  -9.696  0.00  0.00     0.046 C 
ATOM     39  O   LIG d   1       8.119   5.698 -10.249  0.00  0.00    -0.549 OA
ATOM     40  O   LIG d   1      10.140   6.594 -10.258  0.00  0.00    -0.549 OA
ENDBRANCH  26  38
ENDBRANCH  18  21
ENDBRANCH   9  18
BRANCH   8  41
ATOM     41  C   LIG d   1       8.588   2.586  -4.410  0.00  0.00    -0.038 C 
ATOM     42  H   LIG d   1       7.584   2.890  -4.704  0.00  0.00     0.028 H 
ATOM     43  H   LIG d   1       8.743   2.815  -3.355  0.00  0.00     0.028 H 
ATOM     44  H   LIG d   1       9.321   3.125  -5.010  0.00  0.00     0.028 H 
ENDBRANCH   8  41
BRANCH   1  45
ATOM     45  C   LIG d   1       3.594   1.070  -2.077  0.00  0.00    -0.036 C 
ATOM     46  H   LIG d   1       2.874   1.389  -2.830  0.00  0.00     0.028 H 
ATOM     47  H   LIG d   1       3.078   0.885  -1.135  0.00  0.00     0.028 H 
ATOM     48  H   LIG d   1       4.341   1.852  -1.934  0.00  0.00     0.028 H 
ENDBRANCH   1  45
TORSDOF 5
ENDMDL
MODEL 5
REMARK VINA RESULT:      -6.0      2.465      8.505
REMARK  5 active torsions:
REMARK  status: ('A' for Active; 'I' for Inactive)
REMARK    1  A    between atoms: C_1  and  C_2 
REMARK    2  A    between atoms: C_9  and  C_28 
REMARK    3  A    between atoms: C_10  and  C_16 
REMARK    4  A    between atoms: C_16  and  C_17 
REMARK       I    between atoms: C_17  and  N_19 
REMARK    5  A    between atoms: C_23  and  C_26 
ROOT
ATOM      1  C   LIG d   1       7.995 -10.913  -3.302  0.00  0.00    -0.005 A 
ATOM      2  C   LIG d   1       7.269 -12.036  -3.350  0.00  0.00     0.096 A 
ATOM      3  O   LIG d   1       6.121 -11.822  -4.018  0.00  0.00    -0.463 OA
ATOM      4  C   LIG d   1       6.041 -10.544  -4.442  0.00  0.00     0.139 A 
ATOM      5  C   LIG d   1       7.215  -9.891  -4.017  0.00  0.00     0.024 A 
ATOM      6  C   LIG d   1       7.420  -8.551  -4.310  0.00  0.00    -0.040 A 
ATOM      7  C   LIG d   1       6.450  -7.852  -5.029  0.00  0.00     0.022 A 
ATOM      8  C   LIG d   1       6.633  -6.435  -5.355  0.00  0.00    -0.029 A 
ATOM      9  C   LIG d   1       5.656  -5.807  -6.057  0.00  0.00     0.049 A 
ATOM     10  C   LIG d   1       4.505  -6.521  -6.450  0.00  0.00     0.341 A 
ATOM     11  O   LIG d   1       3.636  -5.945  -7.079  0.00  0.00    -0.245 OA
ATOM     12  O   LIG d   1       4.340  -7.818  -6.149  0.00  0.00    -0.422 OA
ATOM     13  C   LIG d   1       5.274  -8.506  -5.452  0.00  0.00     0.143 A 
ATOM     14  C   LIG d   1       5.083  -9.845  -5.160  0.00  0.00     0.024 A 
ATOM     15  H   LIG d   1       7.563 -12.980  -2.914  0.00  0.00     0.103 H 
ATOM     16  H   LIG d   1       8.321  -8.052  -3.983  0.00  0.00     0.063 H 
ATOM     17  H   LIG d   1       4.184 -10.345  -5.490  0.00  0.00     0.069 H 
ENDROOT
BRANCH   9  18
ATOM     18  C   LIG d   1       5.800  -4.350  -6.415  0.00  0.00     0.056 C 
ATOM     19  H   LIG d   1       6.858  -4.100  -6.501  0.00  0.00     0.041 H 
ATOM     20  H   LIG d   1       5.304  -4.159  -7.367  0.00  0.00     0.041 H 
BRANCH  18  21
ATOM     21  C   LIG d   1       5.170  -3.503  -5.340  0.00  0.00     0.220 C 
ATOM     22  O   LIG d   1       4.405  -4.005  -4.544  0.00  0.00    -0.275 OA
ATOM     23  N   LIG d   1       5.456  -2.188  -5.263  0.00  0.00    -0.301 N 
ATOM     24  C   LIG d   1       4.849  -1.350  -4.220  0.00  0.00     0.023 C 
ATOM     25  C   LIG d   1       6.386  -1.568  -6.216  0.00  0.00     0.015 C 
ATOM     26  C   LIG d   1       5.964  -0.621  -3.463  0.00  0.00     0.014 C 
ATOM     27  H   LIG d   1       4.182  -0.621  -4.680  0.00  0.00     0.047 H 
ATOM     28  H   LIG d   1       4.284  -1.977  -3.529  0.00  0.00     0.047 H 
ATOM     29  C   LIG d   1       6.833   0.148  -4.459  0.00  0.00    -0.042 C 
ATOM     30  H   LIG d   1       6.576  -1.348  -2.928  0.00  0.00     0.038 H 
ATOM     31  C   LIG d   1       7.479  -0.835  -5.440  0.00  0.00    -0.036 C 
ATOM     32  H   LIG d   1       6.215   0.856  -5.010  0.00  0.00     0.027 H 
ATOM     33  H   LIG d   1       7.613   0.687  -3.920  0.00  0.00     0.027 H 
ATOM     34  H   LIG d   1       8.117  -0.289  -6.135  0.00  0.00     0.028 H 
ATOM     35  H   LIG d   1       8.077  -1.560  -4.887  0.00  0.00     0.028 H 
ATOM     36  H   LIG d   1       6.838  -2.338  -6.840  0.00  0.00     0.046 H 
ATOM     37  H   LIG d   1       5.847  -0.857  -6.842  0.00  0.00     0.046 H 
BRANCH  26  38
ATOM     38  C   LIG d   1       5.354   0.344  -2.478  0.00  0.00     0.046 C 
ATOM     39  O   LIG d   1       5.647   1.515  -2.521  0.00  0.00    -0.549 OA
ATOM     40  O   LIG d   1       4.487  -0.098  -1.554  0.00  0.00    -0.549 OA
ENDBRANCH  26  38
ENDBRANCH  18  21
ENDBRANCH   9  18
BRANCH   8  41
ATOM     41  C   LIG d   1       7.874  -5.696  -4.924  0.00  0.00    -0.038 C 
ATOM     42  H   LIG d   1       8.638  -6.412  -4.622  0.00  0.00     0.028 H 
ATOM     43  H   LIG d   1       8.245  -5.095  -5.754  0.00  0.00     0.028 H 
ATOM     44  H   LIG d   1       7.634  -5.044  -4.083  0.00  0.00     0.028 H 
ENDBRANCH   8  41
BRANCH   1  45
ATOM     45  C   LIG d   1       9.341 -10.731  -2.650  0.00  0.00    -0.036 C 
ATOM     46  H   LIG d   1       9.208 -10.575  -1.579  0.00  0.00     0.028 H 
ATOM     47  H   LIG d   1       9.948 -11.620  -2.815  0.00  0.00     0.028 H 
ATOM     48  H   LIG d   1       9.841  -9.864  -3.083  0.00  0.00     0.028 H 
ENDBRANCH   1  45
TORSDOF 5
ENDMDL
MODEL 6
REMARK VINA RESULT:      -6.0      5.953      8.509
REMARK  5 active torsions:
REMARK  status: ('A' for Active; 'I' for Inactive)
REMARK    1  A    between atoms: C_1  and  C_2 
REMARK    2  A    between atoms: C_9  and  C_28 
REMARK    3  A    between atoms: C_10  and  C_16 
REMARK    4  A    between atoms: C_16  and  C_17 
REMARK       I    between atoms: C_17  and  N_19 
REMARK    5  A    between atoms: C_23  and  C_26 
ROOT
ATOM      1  C   LIG d   1       9.564   6.512  -9.720  0.00  0.00    -0.005 A 
ATOM      2  C   LIG d   1      10.089   7.697  -9.385  0.00  0.00     0.096 A 
ATOM      3  O   LIG d   1      10.479   7.688  -8.098  0.00  0.00    -0.463 OA
ATOM      4  C   LIG d   1      10.228   6.492  -7.527  0.00  0.00     0.139 A 
ATOM      5  C   LIG d   1       9.636   5.677  -8.512  0.00  0.00     0.024 A 
ATOM      6  C   LIG d   1       9.263   4.374  -8.216  0.00  0.00    -0.040 A 
ATOM      7  C   LIG d   1       9.479   3.876  -6.931  0.00  0.00     0.022 A 
ATOM      8  C   LIG d   1       9.097   2.504  -6.584  0.00  0.00    -0.029 A 
ATOM      9  C   LIG d   1       9.331   2.074  -5.318  0.00  0.00     0.049 A 
ATOM     10  C   LIG d   1       9.927   2.944  -4.381  0.00  0.00     0.341 A 
ATOM     11  O   LIG d   1      10.132   2.545  -3.248  0.00  0.00    -0.245 OA
ATOM     12  O   LIG d   1      10.275   4.199  -4.702  0.00  0.00    -0.422 OA
ATOM     13  C   LIG d   1      10.071   4.693  -5.945  0.00  0.00     0.143 A 
ATOM     14  C   LIG d   1      10.444   5.989  -6.252  0.00  0.00     0.024 A 
ATOM     15  H   LIG d   1      10.185   8.540 -10.054  0.00  0.00     0.103 H 
ATOM     16  H   LIG d   1       8.809   3.751  -8.973  0.00  0.00     0.063 H 
ATOM     17  H   LIG d   1      10.902   6.611  -5.498  0.00  0.00     0.069 H 
ENDROOT
BRANCH   9  18
ATOM     18  C   LIG d   1       8.955   0.671  -4.914  0.00  0.00     0.056 C 
ATOM     19  H   LIG d   1       8.889   0.044  -5.804  0.00  0.00     0.041 H 
ATOM     20  H   LIG d   1       9.715   0.271  -4.243  0.00  0.00     0.041 H 
BRANCH  18  21
ATOM     21  C   LIG d   1       7.623   0.691  -4.212  0.00  0.00     0.220 C 
ATOM     22  O   LIG d   1       7.059   1.746  -4.010  0.00  0.00    -0.275 OA
ATOM     23  N   LIG d   1       7.056  -0.464  -3.809  0.00  0.00    -0.301 N 
ATOM     24  C   LIG d   1       5.756  -0.461  -3.123  0.00  0.00     0.023 C 
ATOM     25  C   LIG d   1       7.723  -1.750  -4.054  0.00  0.00     0.015 C 
ATOM     26  C   LIG d   1       4.807  -1.410  -3.862  0.00  0.00     0.014 C 
ATOM     27  H   LIG d   1       5.886  -0.800  -2.095  0.00  0.00     0.047 H 
ATOM     28  H   LIG d   1       5.344   0.549  -3.126  0.00  0.00     0.047 H 
ATOM     29  C   LIG d   1       5.456  -2.791  -3.972  0.00  0.00    -0.042 C 
ATOM     30  H   LIG d   1       4.606  -1.019  -4.860  0.00  0.00     0.038 H 
ATOM     31  C   LIG d   1       6.753  -2.684  -4.776  0.00  0.00    -0.036 C 
ATOM     32  H   LIG d   1       5.678  -3.168  -2.974  0.00  0.00     0.027 H 
ATOM     33  H   LIG d   1       4.772  -3.474  -4.476  0.00  0.00     0.027 H 
ATOM     34  H   LIG d   1       7.203  -3.672  -4.875  0.00  0.00     0.028 H 
ATOM     35  H   LIG d   1       6.536  -2.282  -5.766  0.00  0.00     0.028 H 
ATOM     36  H   LIG d   1       8.605  -1.592  -4.673  0.00  0.00     0.046 H 
ATOM     37  H   LIG d   1       8.016  -2.196  -3.103  0.00  0.00     0.046 H 
BRANCH  26  38
ATOM     38  C   LIG d   1       3.513  -1.521  -3.097  0.00  0.00     0.046 C 
ATOM     39  O   LIG d   1       3.340  -2.443  -2.335  0.00  0.00    -0.549 OA
ATOM     40  O   LIG d   1       2.554  -0.598  -3.262  0.00  0.00    -0.549 OA
ENDBRANCH  26  38
ENDBRANCH  18  21
ENDBRANCH   9  18
BRANCH   8  41
ATOM     41  C   LIG d   1       8.462   1.596  -7.605  0.00  0.00    -0.038 C 
ATOM     42  H   LIG d   1       7.764   0.922  -7.109  0.00  0.00     0.028 H 
ATOM     43  H   LIG d   1       7.928   2.195  -8.343  0.00  0.00     0.028 H 
ATOM     44  H   LIG d   1       9.237   1.012  -8.103  0.00  0.00     0.028 H 
ENDBRANCH   8  41
BRANCH   1  45
ATOM     45  C   LIG d   1       9.012   6.113 -11.064  0.00  0.00    -0.036 C 
ATOM     46  H   LIG d   1       8.209   6.794 -11.345  0.00  0.00     0.028 H 
ATOM     47  H   LIG d   1       9.805   6.158 -11.810  0.00  0.00     0.028 H 
ATOM     48  H   LIG d   1       8.624   5.095 -11.010  0.00  0.00     0.028 H 
ENDBRANCH   1  45
TORSDOF 5
ENDMDL
MODEL 7
REMARK VINA RESULT:      -6.0      7.151      8.779
REMARK  5 active torsions:
REMARK  status: ('A' for Active; 'I' for Inactive)
REMARK    1  A    between atoms: C_1  and  C_2 
REMARK    2  A    between atoms: C_9  and  C_28 
REMARK    3  A    between atoms: C_10  and  C_16 
REMARK    4  A    between atoms: C_16  and  C_17 
REMARK       I    between atoms: C_17  and  N_19 
REMARK    5  A    between atoms: C_23  and  C_26 
ROOT
ATOM      1  C   LIG d   1       4.002   0.010  -2.688  0.00  0.00    -0.005 A 
ATOM      2  C   LIG d   1       4.457  -0.950  -1.873  0.00  0.00     0.096 A 
ATOM      3  O   LIG d   1       4.792  -2.042  -2.581  0.00  0.00    -0.463 OA
ATOM      4  C   LIG d   1       4.573  -1.850  -3.899  0.00  0.00     0.139 A 
ATOM      5  C   LIG d   1       4.061  -0.545  -4.048  0.00  0.00     0.024 A 
ATOM      6  C   LIG d   1       3.737  -0.056  -5.305  0.00  0.00    -0.040 A 
ATOM      7  C   LIG d   1       3.921  -0.869  -6.423  0.00  0.00     0.022 A 
ATOM      8  C   LIG d   1       3.588  -0.385  -7.766  0.00  0.00    -0.029 A 
ATOM      9  C   LIG d   1       3.788  -1.220  -8.817  0.00  0.00     0.049 A 
ATOM     10  C   LIG d   1       4.303  -2.515  -8.596  0.00  0.00     0.341 A 
ATOM     11  O   LIG d   1       4.478  -3.254  -9.548  0.00  0.00    -0.245 OA
ATOM     12  O   LIG d   1       4.606  -2.955  -7.365  0.00  0.00    -0.422 OA
ATOM     13  C   LIG d   1       4.432  -2.175  -6.273  0.00  0.00     0.143 A 
ATOM     14  C   LIG d   1       4.757  -2.651  -5.015  0.00  0.00     0.024 A 
ATOM     15  H   LIG d   1       4.541  -0.859  -0.800  0.00  0.00     0.103 H 
ATOM     16  H   LIG d   1       3.344   0.945  -5.417  0.00  0.00     0.063 H 
ATOM     17  H   LIG d   1       5.154  -3.649  -4.902  0.00  0.00     0.069 H 
ENDROOT
BRANCH   9  18
ATOM     18  C   LIG d   1       3.461  -0.766 -10.216  0.00  0.00     0.056 C 
ATOM     19  H   LIG d   1       3.417   0.323 -10.243  0.00  0.00     0.041 H 
ATOM     20  H   LIG d   1       4.233  -1.116 -10.902  0.00  0.00     0.041 H 
BRANCH  18  21
ATOM     21  C   LIG d   1       2.128  -1.333 -10.629  0.00  0.00     0.220 C 
ATOM     22  O   LIG d   1       1.147  -1.141  -9.941  0.00  0.00    -0.275 OA
ATOM     23  N   LIG d   1       2.024  -2.054 -11.764  0.00  0.00    -0.301 N 
ATOM     24  C   LIG d   1       0.730  -2.613 -12.180  0.00  0.00     0.023 C 
ATOM     25  C   LIG d   1       3.200  -2.289 -12.611  0.00  0.00     0.015 C 
ATOM     26  C   LIG d   1       0.438  -2.165 -13.616  0.00  0.00     0.014 C 
ATOM     27  H   LIG d   1       0.773  -3.701 -12.138  0.00  0.00     0.047 H 
ATOM     28  H   LIG d   1      -0.055  -2.252 -11.515  0.00  0.00     0.047 H 
ATOM     29  C   LIG d   1       1.611  -2.556 -14.517  0.00  0.00    -0.042 C 
ATOM     30  H   LIG d   1       0.305  -1.082 -13.639  0.00  0.00     0.038 H 
ATOM     31  C   LIG d   1       2.881  -1.849 -14.039  0.00  0.00    -0.036 C 
ATOM     32  H   LIG d   1       1.758  -3.635 -14.473  0.00  0.00     0.027 H 
ATOM     33  H   LIG d   1       1.395  -2.260 -15.543  0.00  0.00     0.027 H 
ATOM     34  H   LIG d   1       3.712  -2.110 -14.696  0.00  0.00     0.028 H 
ATOM     35  H   LIG d   1       2.727  -0.770 -14.058  0.00  0.00     0.028 H 
ATOM     36  H   LIG d   1       4.044  -1.712 -12.233  0.00  0.00     0.046 H 
ATOM     37  H   LIG d   1       3.449  -3.350 -12.605  0.00  0.00     0.046 H 
BRANCH  26  38
ATOM     38  C   LIG d   1      -0.819  -2.836 -14.106  0.00  0.00     0.046 C 
ATOM     39  O   LIG d   1      -1.242  -3.815 -13.536  0.00  0.00    -0.549 OA
ATOM     40  O   LIG d   1      -1.468  -2.348 -15.174  0.00  0.00    -0.549 OA
ENDBRANCH  26  38
ENDBRANCH  18  21
ENDBRANCH   9  18
BRANCH   8  41
ATOM     41  C   LIG d   1       3.040   1.003  -7.974  0.00  0.00    -0.038 C 
ATOM     42  H   LIG d   1       1.978   1.016  -7.729  0.00  0.00     0.028 H 
ATOM     43  H   LIG d   1       3.571   1.704  -7.329  0.00  0.00     0.028 H 
ATOM     44  H   LIG d   1       3.176   1.295  -9.016  0.00  0.00     0.028 H 
ENDBRANCH   8  41
BRANCH   1  45
ATOM     45  C   LIG d   1       3.526   1.384  -2.292  0.00  0.00    -0.036 C 
ATOM     46  H   LIG d   1       3.038   1.860  -3.142  0.00  0.00     0.028 H 
ATOM     47  H   LIG d   1       2.819   1.300  -1.467  0.00  0.00     0.028 H 
ATOM     48  H   LIG d   1       4.379   1.987  -1.978  0.00  0.00     0.028 H 
ENDBRANCH   1  45
TORSDOF 5
ENDMDL
MODEL 8
REMARK VINA RESULT:      -5.9      6.418      8.919
REMARK  5 active torsions:
REMARK  status: ('A' for Active; 'I' for Inactive)
REMARK    1  A    between atoms: C_1  and  C_2 
REMARK    2  A    between atoms: C_9  and  C_28 
REMARK    3  A    between atoms: C_10  and  C_16 
REMARK    4  A    between atoms: C_16  and  C_17 
REMARK       I    between atoms: C_17  and  N_19 
REMARK    5  A    between atoms: C_23  and  C_26 
ROOT
ATOM      1  C   LIG d   1      -0.395  -4.718 -11.366  0.00  0.00    -0.005 A 
ATOM      2  C   LIG d   1      -1.163  -4.321 -12.388  0.00  0.00     0.096 A 
ATOM      3  O   LIG d   1      -0.779  -3.105 -12.814  0.00  0.00    -0.463 OA
ATOM      4  C   LIG d   1       0.263  -2.646 -12.090  0.00  0.00     0.139 A 
ATOM      5  C   LIG d   1       0.569  -3.633 -11.132  0.00  0.00     0.024 A 
ATOM      6  C   LIG d   1       1.608  -3.443 -10.233  0.00  0.00    -0.040 A 
ATOM      7  C   LIG d   1       2.349  -2.262 -10.284  0.00  0.00     0.022 A 
ATOM      8  C   LIG d   1       3.453  -2.027  -9.349  0.00  0.00    -0.029 A 
ATOM      9  C   LIG d   1       4.138  -0.860  -9.447  0.00  0.00     0.049 A 
ATOM     10  C   LIG d   1       3.778   0.086 -10.429  0.00  0.00     0.341 A 
ATOM     11  O   LIG d   1       4.402   1.129 -10.505  0.00  0.00    -0.245 OA
ATOM     12  O   LIG d   1       2.767  -0.132 -11.283  0.00  0.00    -0.422 OA
ATOM     13  C   LIG d   1       2.041  -1.273 -11.243  0.00  0.00     0.143 A 
ATOM     14  C   LIG d   1       1.006  -1.476 -12.139  0.00  0.00     0.024 A 
ATOM     15  H   LIG d   1      -1.975  -4.895 -12.809  0.00  0.00     0.103 H 
ATOM     16  H   LIG d   1       1.841  -4.201  -9.499  0.00  0.00     0.063 H 
ATOM     17  H   LIG d   1       0.775  -0.721 -12.875  0.00  0.00     0.069 H 
ENDROOT
BRANCH   9  18
ATOM     18  C   LIG d   1       5.282  -0.574  -8.507  0.00  0.00     0.056 C 
ATOM     19  H   LIG d   1       5.867  -1.483  -8.360  0.00  0.00     0.041 H 
ATOM     20  H   LIG d   1       5.917   0.202  -8.933  0.00  0.00     0.041 H 
BRANCH  18  21
ATOM     21  C   LIG d   1       4.738  -0.107  -7.182  0.00  0.00     0.220 C 
ATOM     22  O   LIG d   1       3.835   0.701  -7.148  0.00  0.00    -0.275 OA
ATOM     23  N   LIG d   1       5.255  -0.589  -6.034  0.00  0.00    -0.301 N 
ATOM     24  C   LIG d   1       4.734  -0.144  -4.733  0.00  0.00     0.023 C 
ATOM     25  C   LIG d   1       6.344  -1.575  -6.058  0.00  0.00     0.015 C 
ATOM     26  C   LIG d   1       4.343  -1.376  -3.911  0.00  0.00     0.014 C 
ATOM     27  H   LIG d   1       5.504   0.419  -4.206  0.00  0.00     0.047 H 
ATOM     28  H   LIG d   1       3.859   0.489  -4.887  0.00  0.00     0.047 H 
ATOM     29  C   LIG d   1       5.541  -2.323  -3.817  0.00  0.00    -0.042 C 
ATOM     30  H   LIG d   1       3.510  -1.887  -4.394  0.00  0.00     0.038 H 
ATOM     31  C   LIG d   1       5.938  -2.786  -5.220  0.00  0.00    -0.036 C 
ATOM     32  H   LIG d   1       6.379  -1.803  -3.356  0.00  0.00     0.027 H 
ATOM     33  H   LIG d   1       5.272  -3.189  -3.212  0.00  0.00     0.027 H 
ATOM     34  H   LIG d   1       6.777  -3.479  -5.151  0.00  0.00     0.028 H 
ATOM     35  H   LIG d   1       5.091  -3.284  -5.692  0.00  0.00     0.028 H 
ATOM     36  H   LIG d   1       6.529  -1.889  -7.085  0.00  0.00     0.046 H 
ATOM     37  H   LIG d   1       7.247  -1.131  -5.641  0.00  0.00     0.046 H 
BRANCH  26  38
ATOM     38  C   LIG d   1       3.932  -0.945  -2.526  0.00  0.00     0.046 C 
ATOM     39  O   LIG d   1       4.291  -1.583  -1.564  0.00  0.00    -0.549 OA
ATOM     40  O   LIG d   1       3.168   0.146  -2.361  0.00  0.00    -0.549 OA
ENDBRANCH  26  38
ENDBRANCH  18  21
ENDBRANCH   9  18
BRANCH   8  41
ATOM     41  C   LIG d   1       3.818  -3.055  -8.310  0.00  0.00    -0.038 C 
ATOM     42  H   LIG d   1       3.840  -2.586  -7.326  0.00  0.00     0.028 H 
ATOM     43  H   LIG d   1       3.078  -3.856  -8.314  0.00  0.00     0.028 H 
ATOM     44  H   LIG d   1       4.801  -3.468  -8.537  0.00  0.00     0.028 H 
ENDBRANCH   8  41
BRANCH   1  45
ATOM     45  C   LIG d   1      -0.497  -6.016 -10.608  0.00  0.00    -0.036 C 
ATOM     46  H   LIG d   1      -1.334  -5.967  -9.911  0.00  0.00     0.028 H 
ATOM     47  H   LIG d   1      -0.656  -6.835 -11.309  0.00  0.00     0.028 H 
ATOM     48  H   LIG d   1       0.427  -6.187 -10.054  0.00  0.00     0.028 H 
ENDBRANCH   1  45
TORSDOF 5
ENDMDL
MODEL 9
REMARK VINA RESULT:      -5.9      2.389      8.368
REMARK  5 active torsions:
REMARK  status: ('A' for Active; 'I' for Inactive)
REMARK    1  A    between atoms: C_1  and  C_2 
REMARK    2  A    between atoms: C_9  and  C_28 
REMARK    3  A    between atoms: C_10  and  C_16 
REMARK    4  A    between atoms: C_16  and  C_17 
REMARK       I    between atoms: C_17  and  N_19 
REMARK    5  A    between atoms: C_23  and  C_26 
ROOT
ATOM      1  C   LIG d   1       8.662 -11.110  -1.021  0.00  0.00    -0.005 A 
ATOM      2  C   LIG d   1       8.112 -12.298  -0.743  0.00  0.00     0.096 A 
ATOM      3  O   LIG d   1       7.043 -12.513  -1.531  0.00  0.00    -0.463 OA
ATOM      4  C   LIG d   1       6.842 -11.473  -2.366  0.00  0.00     0.139 A 
ATOM      5  C   LIG d   1       7.849 -10.524  -2.097  0.00  0.00     0.024 A 
ATOM      6  C   LIG d   1       7.902  -9.334  -2.808  0.00  0.00    -0.040 A 
ATOM      7  C   LIG d   1       6.947  -9.083  -3.793  0.00  0.00     0.022 A 
ATOM      8  C   LIG d   1       6.973  -7.836  -4.563  0.00  0.00    -0.029 A 
ATOM      9  C   LIG d   1       6.018  -7.647  -5.510  0.00  0.00     0.049 A 
ATOM     10  C   LIG d   1       5.039  -8.639  -5.727  0.00  0.00     0.341 A 
ATOM     11  O   LIG d   1       4.189  -8.456  -6.579  0.00  0.00    -0.245 OA
ATOM     12  O   LIG d   1       5.019  -9.779  -5.020  0.00  0.00    -0.422 OA
ATOM     13  C   LIG d   1       5.939 -10.033  -4.061  0.00  0.00     0.143 A 
ATOM     14  C   LIG d   1       5.899 -11.219  -3.350  0.00  0.00     0.024 A 
ATOM     15  H   LIG d   1       8.475 -12.985   0.007  0.00  0.00     0.103 H 
ATOM     16  H   LIG d   1       8.674  -8.607  -2.600  0.00  0.00     0.063 H 
ATOM     17  H   LIG d   1       5.130 -11.948  -3.560  0.00  0.00     0.069 H 
ENDROOT
BRANCH   9  18
ATOM     18  C   LIG d   1       6.005  -6.380  -6.326  0.00  0.00     0.056 C 
ATOM     19  H   LIG d   1       7.014  -5.972  -6.380  0.00  0.00     0.041 H 
ATOM     20  H   LIG d   1       5.648  -6.601  -7.333  0.00  0.00     0.041 H 
BRANCH  18  21
ATOM     21  C   LIG d   1       5.089  -5.375  -5.678  0.00  0.00     0.220 C 
ATOM     22  O   LIG d   1       3.941  -5.673  -5.427  0.00  0.00    -0.275 OA
ATOM     23  N   LIG d   1       5.547  -4.143  -5.377  0.00  0.00    -0.301 N 
ATOM     24  C   LIG d   1       4.666  -3.151  -4.743  0.00  0.00     0.023 C 
ATOM     25  C   LIG d   1       6.937  -3.769  -5.668  0.00  0.00     0.015 C 
ATOM     26  C   LIG d   1       5.344  -2.630  -3.472  0.00  0.00     0.014 C 
ATOM     27  H   LIG d   1       4.494  -2.324  -5.432  0.00  0.00     0.047 H 
ATOM     28  H   LIG d   1       3.714  -3.619  -4.487  0.00  0.00     0.047 H 
ATOM     29  C   LIG d   1       6.736  -2.101  -3.822  0.00  0.00    -0.042 C 
ATOM     30  H   LIG d   1       5.433  -3.440  -2.748  0.00  0.00     0.038 H 
ATOM     31  C   LIG d   1       7.588  -3.238  -4.392  0.00  0.00    -0.036 C 
ATOM     32  H   LIG d   1       6.648  -1.308  -4.564  0.00  0.00     0.027 H 
ATOM     33  H   LIG d   1       7.212  -1.707  -2.924  0.00  0.00     0.027 H 
ATOM     34  H   LIG d   1       8.587  -2.866  -4.619  0.00  0.00     0.028 H 
ATOM     35  H   LIG d   1       7.656  -4.043  -3.660  0.00  0.00     0.028 H 
ATOM     36  H   LIG d   1       7.485  -4.643  -6.019  0.00  0.00     0.046 H 
ATOM     37  H   LIG d   1       6.954  -2.993  -6.434  0.00  0.00     0.046 H 
BRANCH  26  38
ATOM     38  C   LIG d   1       4.517  -1.517  -2.882  0.00  0.00     0.046 C 
ATOM     39  O   LIG d   1       5.057  -0.522  -2.460  0.00  0.00    -0.549 OA
ATOM     40  O   LIG d   1       3.181  -1.631  -2.825  0.00  0.00    -0.549 OA
ENDBRANCH  26  38
ENDBRANCH  18  21
ENDBRANCH   9  18
BRANCH   8  41
ATOM     41  C   LIG d   1       8.031  -6.793  -4.312  0.00  0.00    -0.038 C 
ATOM     42  H   LIG d   1       7.926  -5.987  -5.037  0.00  0.00     0.028 H 
ATOM     43  H   LIG d   1       7.915  -6.393  -3.304  0.00  0.00     0.028 H 
ATOM     44  H   LIG d   1       9.018  -7.246  -4.412  0.00  0.00     0.028 H 
ENDBRANCH   8  41
BRANCH   1  45
ATOM     45  C   LIG d   1       9.872 -10.496  -0.366  0.00  0.00    -0.036 C 
ATOM     46  H   LIG d   1      10.107  -9.548  -0.850  0.00  0.00     0.028 H 
ATOM     47  H   LIG d   1       9.666 -10.324   0.690  0.00  0.00     0.028 H 
ATOM     48  H   LIG d   1      10.721 -11.174  -0.463  0.00  0.00     0.028 H 
ENDBRANCH   1  45
TORSDOF 5
ENDMDL
