MODEL 1
REMARK VINA RESULT:      -6.5      0.000      0.000
REMARK  4 active torsions:
REMARK  status: ('A' for Active; 'I' for Inactive)
REMARK    1  A    between atoms: C_4  and  C_7 
REMARK    2  A    between atoms: C_8  and  C_9 
REMARK    3  A    between atoms: C_12  and  N_16 
REMARK    4  A    between atoms: C_14  and  N_15 
ROOT
ATOM      1  C   LIG d   1       3.281  -0.536  -7.766  0.00  0.00    -0.004 A 
ATOM      2  C   LIG d   1       2.744   0.554  -8.456  0.00  0.00    -0.046 A 
ATOM      3  C   LIG d   1       2.262   0.386  -9.736  0.00  0.00     0.016 A 
ATOM      4  C   LIG d   1       2.308  -0.858 -10.344  0.00  0.00     0.275 A 
ATOM      5  C   LIG d   1       2.831  -1.946  -9.672  0.00  0.00     0.037 A 
ATOM      6  C   LIG d   1       3.325  -1.795  -8.385  0.00  0.00     0.038 A 
ATOM      7  H   LIG d   1       2.707   1.525  -7.987  0.00  0.00     0.063 H 
ATOM      8  H   LIG d   1       1.848   1.229 -10.269  0.00  0.00     0.069 H 
ATOM      9  H   LIG d   1       2.858  -2.913 -10.151  0.00  0.00     0.070 H 
ENDROOT
BRANCH   1  10
ATOM     10  C   LIG d   1       3.798  -0.365  -6.397  0.00  0.00    -0.052 C 
ATOM     11  C   LIG d   1       2.947  -0.143  -5.382  0.00  0.00    -0.054 C 
ATOM     12  H   LIG d   1       1.886  -0.089  -5.568  0.00  0.00     0.062 H 
ATOM     13  H   LIG d   1       4.860  -0.419  -6.211  0.00  0.00     0.062 H 
BRANCH  11  14
ATOM     14  C   LIG d   1       3.464   0.028  -4.012  0.00  0.00    -0.025 A 
ATOM     15  C   LIG d   1       3.880  -1.084  -3.275  0.00  0.00    -0.055 A 
ATOM     16  C   LIG d   1       4.362  -0.917  -1.993  0.00  0.00    -0.061 A 
ATOM     17  H   LIG d   1       3.823  -2.072  -3.708  0.00  0.00     0.062 H 
ATOM     18  C   LIG d   1       4.435   0.347  -1.438  0.00  0.00    -0.062 A 
ATOM     19  H   LIG d   1       4.684  -1.776  -1.424  0.00  0.00     0.062 H 
ATOM     20  C   LIG d   1       4.025   1.454  -2.161  0.00  0.00    -0.061 A 
ATOM     21  H   LIG d   1       4.814   0.473  -0.434  0.00  0.00     0.062 H 
ATOM     22  C   LIG d   1       3.544   1.303  -3.445  0.00  0.00    -0.055 A 
ATOM     23  H   LIG d   1       4.085   2.438  -1.721  0.00  0.00     0.062 H 
ATOM     24  H   LIG d   1       3.229   2.167  -4.010  0.00  0.00     0.062 H 
ENDBRANCH  11  14
ENDBRANCH   1  10
BRANCH   6  25
ATOM     25  N   LIG d   1       3.859  -2.891  -7.707  0.00  0.00    -0.357 N 
ATOM     26  H   LIG d   1       3.387  -3.738  -7.708  0.00  0.00     0.142 HD
ATOM     27  H   LIG d   1       4.702  -2.805  -7.236  0.00  0.00     0.142 HD
ENDBRANCH   6  25
BRANCH   4  28
ATOM     28  N   LIG d   1       1.786  -1.025 -11.720  0.00  0.00     0.080 N 
ATOM     29  O   LIG d   1       2.560  -1.121 -12.656  0.00  0.00     0.041 OA
ATOM     30  O   LIG d   1       0.585  -1.071 -11.914  0.00  0.00    -0.576 OA
ENDBRANCH   4  28
TORSDOF 4
ENDMDL
MODEL 2
REMARK VINA RESULT:      -6.4      1.173      2.003
REMARK  4 active torsions:
REMARK  status: ('A' for Active; 'I' for Inactive)
REMARK    1  A    between atoms: C_4  and  C_7 
REMARK    2  A    between atoms: C_8  and  C_9 
REMARK    3  A    between atoms: C_12  and  N_16 
REMARK    4  A    between atoms: C_14  and  N_15 
ROOT
ATOM      1  C   LIG d   1       3.303  -0.319  -7.794  0.00  0.00    -0.004 A 
ATOM      2  C   LIG d   1       3.219  -1.614  -8.312  0.00  0.00    -0.046 A 
ATOM      3  C   LIG d   1       2.753  -1.812  -9.594  0.00  0.00     0.016 A 
ATOM      4  C   LIG d   1       2.365  -0.733 -10.372  0.00  0.00     0.275 A 
ATOM      5  C   LIG d   1       2.448   0.553  -9.875  0.00  0.00     0.037 A 
ATOM      6  C   LIG d   1       2.909   0.771  -8.586  0.00  0.00     0.038 A 
ATOM      7  H   LIG d   1       3.521  -2.458  -7.710  0.00  0.00     0.063 H 
ATOM      8  H   LIG d   1       2.688  -2.813  -9.993  0.00  0.00     0.069 H 
ATOM      9  H   LIG d   1       2.148   1.388 -10.489  0.00  0.00     0.070 H 
ENDROOT
BRANCH   1  10
ATOM     10  C   LIG d   1       3.801  -0.099  -6.425  0.00  0.00    -0.052 C 
ATOM     11  C   LIG d   1       2.994  -0.321  -5.374  0.00  0.00    -0.054 C 
ATOM     12  H   LIG d   1       1.981  -0.660  -5.533  0.00  0.00     0.062 H 
ATOM     13  H   LIG d   1       4.813   0.239  -6.267  0.00  0.00     0.062 H 
BRANCH  11  14
ATOM     14  C   LIG d   1       3.491  -0.102  -4.005  0.00  0.00    -0.025 A 
ATOM     15  C   LIG d   1       3.573   1.192  -3.485  0.00  0.00    -0.055 A 
ATOM     16  C   LIG d   1       4.040   1.390  -2.202  0.00  0.00    -0.061 A 
ATOM     17  H   LIG d   1       3.271   2.036  -4.087  0.00  0.00     0.062 H 
ATOM     18  C   LIG d   1       4.427   0.309  -1.430  0.00  0.00    -0.062 A 
ATOM     19  H   LIG d   1       4.102   2.390  -1.801  0.00  0.00     0.062 H 
ATOM     20  C   LIG d   1       4.350  -0.977  -1.937  0.00  0.00    -0.061 A 
ATOM     21  H   LIG d   1       4.792   0.469  -0.426  0.00  0.00     0.062 H 
ATOM     22  C   LIG d   1       3.881  -1.190  -3.216  0.00  0.00    -0.055 A 
ATOM     23  H   LIG d   1       4.654  -1.815  -1.328  0.00  0.00     0.062 H 
ATOM     24  H   LIG d   1       3.817  -2.193  -3.609  0.00  0.00     0.062 H 
ENDBRANCH  11  14
ENDBRANCH   1  10
BRANCH   6  25
ATOM     25  N   LIG d   1       2.987   2.068  -8.080  0.00  0.00    -0.357 N 
ATOM     26  H   LIG d   1       3.518   2.248  -7.288  0.00  0.00     0.142 HD
ATOM     27  H   LIG d   1       2.512   2.789  -8.520  0.00  0.00     0.142 HD
ENDBRANCH   6  25
BRANCH   4  28
ATOM     28  N   LIG d   1       1.866  -0.960 -11.747  0.00  0.00     0.080 N 
ATOM     29  O   LIG d   1       2.653  -1.064 -12.671  0.00  0.00     0.041 OA
ATOM     30  O   LIG d   1       0.669  -1.048 -11.954  0.00  0.00    -0.576 OA
ENDBRANCH   4  28
TORSDOF 4
ENDMDL
MODEL 3
REMARK VINA RESULT:      -6.0      4.416      5.381
REMARK  4 active torsions:
REMARK  status: ('A' for Active; 'I' for Inactive)
REMARK    1  A    between atoms: C_4  and  C_7 
REMARK    2  A    between atoms: C_8  and  C_9 
REMARK    3  A    between atoms: C_12  and  N_16 
REMARK    4  A    between atoms: C_14  and  N_15 
ROOT
ATOM      1  C   LIG d   1       4.612  -4.299  -5.873  0.00  0.00    -0.004 A 
ATOM      2  C   LIG d   1       5.089  -5.415  -5.182  0.00  0.00    -0.046 A 
ATOM      3  C   LIG d   1       4.976  -6.669  -5.741  0.00  0.00     0.016 A 
ATOM      4  C   LIG d   1       4.390  -6.831  -6.986  0.00  0.00     0.275 A 
ATOM      5  C   LIG d   1       3.918  -5.736  -7.683  0.00  0.00     0.037 A 
ATOM      6  C   LIG d   1       4.019  -4.466  -7.135  0.00  0.00     0.038 A 
ATOM      7  H   LIG d   1       5.547  -5.294  -4.211  0.00  0.00     0.063 H 
ATOM      8  H   LIG d   1       5.344  -7.532  -5.205  0.00  0.00     0.069 H 
ATOM      9  H   LIG d   1       3.467  -5.870  -8.655  0.00  0.00     0.070 H 
ENDROOT
BRANCH   1  10
ATOM     10  C   LIG d   1       4.729  -2.955  -5.283  0.00  0.00    -0.052 C 
ATOM     11  C   LIG d   1       4.772  -2.810  -3.948  0.00  0.00    -0.054 C 
ATOM     12  H   LIG d   1       4.720  -3.678  -3.308  0.00  0.00     0.062 H 
ATOM     13  H   LIG d   1       4.781  -2.087  -5.922  0.00  0.00     0.062 H 
BRANCH  11  14
ATOM     14  C   LIG d   1       4.890  -1.465  -3.357  0.00  0.00    -0.025 A 
ATOM     15  C   LIG d   1       3.945  -1.019  -2.430  0.00  0.00    -0.055 A 
ATOM     16  C   LIG d   1       4.062   0.241  -1.881  0.00  0.00    -0.061 A 
ATOM     17  H   LIG d   1       3.123  -1.660  -2.145  0.00  0.00     0.062 H 
ATOM     18  C   LIG d   1       5.113   1.062  -2.245  0.00  0.00    -0.062 A 
ATOM     19  H   LIG d   1       3.331   0.585  -1.164  0.00  0.00     0.062 H 
ATOM     20  C   LIG d   1       6.055   0.628  -3.162  0.00  0.00    -0.061 A 
ATOM     21  H   LIG d   1       5.201   2.048  -1.812  0.00  0.00     0.062 H 
ATOM     22  C   LIG d   1       5.953  -0.630  -3.717  0.00  0.00    -0.055 A 
ATOM     23  H   LIG d   1       6.873   1.275  -3.442  0.00  0.00     0.062 H 
ATOM     24  H   LIG d   1       6.690  -0.970  -4.429  0.00  0.00     0.062 H 
ENDBRANCH  11  14
ENDBRANCH   1  10
BRANCH   6  25
ATOM     25  N   LIG d   1       3.538  -3.361  -7.835  0.00  0.00    -0.357 N 
ATOM     26  H   LIG d   1       3.691  -3.288  -8.790  0.00  0.00     0.142 HD
ATOM     27  H   LIG d   1       3.049  -2.667  -7.367  0.00  0.00     0.142 HD
ENDBRANCH   6  25
BRANCH   4  28
ATOM     28  N   LIG d   1       4.275  -8.184  -7.575  0.00  0.00     0.080 N 
ATOM     29  O   LIG d   1       4.284  -9.165  -6.852  0.00  0.00     0.041 OA
ATOM     30  O   LIG d   1       4.164  -8.316  -8.780  0.00  0.00    -0.576 OA
ENDBRANCH   4  28
TORSDOF 4
ENDMDL
MODEL 4
REMARK VINA RESULT:      -5.9      5.064      6.190
REMARK  4 active torsions:
REMARK  status: ('A' for Active; 'I' for Inactive)
REMARK    1  A    between atoms: C_4  and  C_7 
REMARK    2  A    between atoms: C_8  and  C_9 
REMARK    3  A    between atoms: C_12  and  N_16 
REMARK    4  A    between atoms: C_14  and  N_15 
ROOT
ATOM      1  C   LIG d   1       5.639  -4.390  -5.368  0.00  0.00    -0.004 A 
ATOM      2  C   LIG d   1       6.935  -4.869  -5.159  0.00  0.00    -0.046 A 
ATOM      3  C   LIG d   1       7.276  -6.135  -5.582  0.00  0.00     0.016 A 
ATOM      4  C   LIG d   1       6.340  -6.938  -6.213  0.00  0.00     0.275 A 
ATOM      5  C   LIG d   1       5.056  -6.476  -6.431  0.00  0.00     0.037 A 
ATOM      6  C   LIG d   1       4.693  -5.207  -6.008  0.00  0.00     0.038 A 
ATOM      7  H   LIG d   1       7.668  -4.247  -4.668  0.00  0.00     0.063 H 
ATOM      8  H   LIG d   1       8.278  -6.504  -5.420  0.00  0.00     0.069 H 
ATOM      9  H   LIG d   1       4.334  -7.107  -6.927  0.00  0.00     0.070 H 
ENDROOT
BRANCH   1  10
ATOM     10  C   LIG d   1       5.267  -3.037  -4.919  0.00  0.00    -0.052 C 
ATOM     11  C   LIG d   1       4.651  -2.869  -3.737  0.00  0.00    -0.054 C 
ATOM     12  H   LIG d   1       4.429  -3.724  -3.116  0.00  0.00     0.062 H 
ATOM     13  H   LIG d   1       5.489  -2.183  -5.539  0.00  0.00     0.062 H 
BRANCH  11  14
ATOM     14  C   LIG d   1       4.280  -1.516  -3.287  0.00  0.00    -0.025 A 
ATOM     15  C   LIG d   1       4.829  -0.989  -2.115  0.00  0.00    -0.055 A 
ATOM     16  C   LIG d   1       4.477   0.278  -1.699  0.00  0.00    -0.061 A 
ATOM     17  H   LIG d   1       5.528  -1.574  -1.535  0.00  0.00     0.062 H 
ATOM     18  C   LIG d   1       3.582   1.028  -2.441  0.00  0.00    -0.062 A 
ATOM     19  H   LIG d   1       4.901   0.685  -0.794  0.00  0.00     0.062 H 
ATOM     20  C   LIG d   1       3.033   0.514  -3.603  0.00  0.00    -0.061 A 
ATOM     21  H   LIG d   1       3.309   2.020  -2.111  0.00  0.00     0.062 H 
ATOM     22  C   LIG d   1       3.379  -0.750  -4.033  0.00  0.00    -0.055 A 
ATOM     23  H   LIG d   1       2.335   1.106  -4.177  0.00  0.00     0.062 H 
ATOM     24  H   LIG d   1       2.954  -1.148  -4.942  0.00  0.00     0.062 H 
ENDBRANCH  11  14
ENDBRANCH   1  10
BRANCH   6  25
ATOM     25  N   LIG d   1       3.397  -4.741  -6.221  0.00  0.00    -0.357 N 
ATOM     26  H   LIG d   1       3.093  -4.547  -7.122  0.00  0.00     0.142 HD
ATOM     27  H   LIG d   1       2.798  -4.613  -5.469  0.00  0.00     0.142 HD
ENDBRANCH   6  25
BRANCH   4  28
ATOM     28  N   LIG d   1       6.719  -8.297  -6.663  0.00  0.00     0.080 N 
ATOM     29  O   LIG d   1       6.107  -9.267  -6.253  0.00  0.00     0.041 OA
ATOM     30  O   LIG d   1       7.640  -8.444  -7.446  0.00  0.00    -0.576 OA
ENDBRANCH   4  28
TORSDOF 4
ENDMDL
MODEL 5
REMARK VINA RESULT:      -5.9      4.207      7.452
REMARK  4 active torsions:
REMARK  status: ('A' for Active; 'I' for Inactive)
REMARK    1  A    between atoms: C_4  and  C_7 
REMARK    2  A    between atoms: C_8  and  C_9 
REMARK    3  A    between atoms: C_12  and  N_16 
REMARK    4  A    between atoms: C_14  and  N_15 
ROOT
ATOM      1  C   LIG d   1       3.686  -0.398  -6.440  0.00  0.00    -0.004 A 
ATOM      2  C   LIG d   1       2.624   0.247  -5.801  0.00  0.00    -0.046 A 
ATOM      3  C   LIG d   1       2.711   0.548  -4.459  0.00  0.00     0.016 A 
ATOM      4  C   LIG d   1       3.846   0.214  -3.739  0.00  0.00     0.275 A 
ATOM      5  C   LIG d   1       4.906  -0.419  -4.358  0.00  0.00     0.037 A 
ATOM      6  C   LIG d   1       4.835  -0.735  -5.707  0.00  0.00     0.038 A 
ATOM      7  H   LIG d   1       1.737   0.509  -6.358  0.00  0.00     0.063 H 
ATOM      8  H   LIG d   1       1.889   1.046  -3.966  0.00  0.00     0.069 H 
ATOM      9  H   LIG d   1       5.789  -0.671  -3.791  0.00  0.00     0.070 H 
ENDROOT
BRANCH   1  10
ATOM     10  C   LIG d   1       3.601  -0.724  -7.874  0.00  0.00    -0.052 C 
ATOM     11  C   LIG d   1       2.543  -0.313  -8.593  0.00  0.00    -0.054 C 
ATOM     12  H   LIG d   1       1.755   0.254  -8.121  0.00  0.00     0.062 H 
ATOM     13  H   LIG d   1       4.388  -1.291  -8.346  0.00  0.00     0.062 H 
BRANCH  11  14
ATOM     14  C   LIG d   1       2.458  -0.638 -10.028  0.00  0.00    -0.025 A 
ATOM     15  C   LIG d   1       3.561  -0.433 -10.861  0.00  0.00    -0.055 A 
ATOM     16  C   LIG d   1       3.474  -0.739 -12.204  0.00  0.00    -0.061 A 
ATOM     17  H   LIG d   1       4.479  -0.036 -10.455  0.00  0.00     0.062 H 
ATOM     18  C   LIG d   1       2.298  -1.248 -12.725  0.00  0.00    -0.062 A 
ATOM     19  H   LIG d   1       4.326  -0.581 -12.848  0.00  0.00     0.062 H 
ATOM     20  C   LIG d   1       1.201  -1.454 -11.907  0.00  0.00    -0.061 A 
ATOM     21  H   LIG d   1       2.236  -1.486 -13.778  0.00  0.00     0.062 H 
ATOM     22  C   LIG d   1       1.274  -1.157 -10.563  0.00  0.00    -0.055 A 
ATOM     23  H   LIG d   1       0.287  -1.852 -12.322  0.00  0.00     0.062 H 
ATOM     24  H   LIG d   1       0.419  -1.322  -9.924  0.00  0.00     0.062 H 
ENDBRANCH  11  14
ENDBRANCH   1  10
BRANCH   6  25
ATOM     25  N   LIG d   1       5.901  -1.379  -6.332  0.00  0.00    -0.357 N 
ATOM     26  H   LIG d   1       5.745  -1.915  -7.126  0.00  0.00     0.142 HD
ATOM     27  H   LIG d   1       6.798  -1.290  -5.975  0.00  0.00     0.142 HD
ENDBRANCH   6  25
BRANCH   4  28
ATOM     28  N   LIG d   1       3.926   0.544  -2.297  0.00  0.00     0.080 N 
ATOM     29  O   LIG d   1       4.468  -0.227  -1.526  0.00  0.00     0.041 OA
ATOM     30  O   LIG d   1       3.455   1.588  -1.885  0.00  0.00    -0.576 OA
ENDBRANCH   4  28
TORSDOF 4
ENDMDL
MODEL 6
REMARK VINA RESULT:      -5.8      5.245      6.258
REMARK  4 active torsions:
REMARK  status: ('A' for Active; 'I' for Inactive)
REMARK    1  A    between atoms: C_4  and  C_7 
REMARK    2  A    between atoms: C_8  and  C_9 
REMARK    3  A    between atoms: C_12  and  N_16 
REMARK    4  A    between atoms: C_14  and  N_15 
ROOT
ATOM      1  C   LIG d   1       5.665  -4.216  -5.051  0.00  0.00    -0.004 A 
ATOM      2  C   LIG d   1       4.614  -5.103  -5.301  0.00  0.00    -0.046 A 
ATOM      3  C   LIG d   1       4.885  -6.394  -5.699  0.00  0.00     0.016 A 
ATOM      4  C   LIG d   1       6.195  -6.819  -5.854  0.00  0.00     0.275 A 
ATOM      5  C   LIG d   1       7.244  -5.955  -5.605  0.00  0.00     0.037 A 
ATOM      6  C   LIG d   1       6.991  -4.651  -5.209  0.00  0.00     0.038 A 
ATOM      7  H   LIG d   1       3.592  -4.777  -5.182  0.00  0.00     0.063 H 
ATOM      8  H   LIG d   1       4.072  -7.078  -5.894  0.00  0.00     0.069 H 
ATOM      9  H   LIG d   1       8.261  -6.296  -5.724  0.00  0.00     0.070 H 
ENDROOT
BRANCH   1  10
ATOM     10  C   LIG d   1       5.384  -2.835  -4.624  0.00  0.00    -0.052 C 
ATOM     11  C   LIG d   1       4.486  -2.603  -3.652  0.00  0.00    -0.054 C 
ATOM     12  H   LIG d   1       3.972  -3.428  -3.184  0.00  0.00     0.062 H 
ATOM     13  H   LIG d   1       5.899  -2.010  -5.093  0.00  0.00     0.062 H 
BRANCH  11  14
ATOM     14  C   LIG d   1       4.206  -1.221  -3.224  0.00  0.00    -0.025 A 
ATOM     15  C   LIG d   1       4.771  -0.721  -2.048  0.00  0.00    -0.055 A 
ATOM     16  C   LIG d   1       4.503   0.574  -1.654  0.00  0.00    -0.061 A 
ATOM     17  H   LIG d   1       5.415  -1.347  -1.449  0.00  0.00     0.062 H 
ATOM     18  C   LIG d   1       3.678   1.377  -2.421  0.00  0.00    -0.062 A 
ATOM     19  H   LIG d   1       4.940   0.961  -0.746  0.00  0.00     0.062 H 
ATOM     20  C   LIG d   1       3.114   0.889  -3.587  0.00  0.00    -0.061 A 
ATOM     21  H   LIG d   1       3.472   2.390  -2.107  0.00  0.00     0.062 H 
ATOM     22  C   LIG d   1       3.376  -0.401  -3.996  0.00  0.00    -0.055 A 
ATOM     23  H   LIG d   1       2.471   1.523  -4.180  0.00  0.00     0.062 H 
ATOM     24  H   LIG d   1       2.939  -0.779  -4.908  0.00  0.00     0.062 H 
ENDBRANCH  11  14
ENDBRANCH   1  10
BRANCH   6  25
ATOM     25  N   LIG d   1       8.048  -3.776  -4.963  0.00  0.00    -0.357 N 
ATOM     26  H   LIG d   1       7.888  -2.941  -4.496  0.00  0.00     0.142 HD
ATOM     27  H   LIG d   1       8.943  -4.003  -5.257  0.00  0.00     0.142 HD
ENDBRANCH   6  25
BRANCH   4  28
ATOM     28  N   LIG d   1       6.472  -8.209  -6.283  0.00  0.00     0.080 N 
ATOM     29  O   LIG d   1       6.982  -8.996  -5.505  0.00  0.00     0.041 OA
ATOM     30  O   LIG d   1       6.184  -8.566  -7.411  0.00  0.00    -0.576 OA
ENDBRANCH   4  28
TORSDOF 4
ENDMDL
MODEL 7
REMARK VINA RESULT:      -5.7      6.642      8.031
REMARK  4 active torsions:
REMARK  status: ('A' for Active; 'I' for Inactive)
REMARK    1  A    between atoms: C_4  and  C_7 
REMARK    2  A    between atoms: C_8  and  C_9 
REMARK    3  A    between atoms: C_12  and  N_16 
REMARK    4  A    between atoms: C_14  and  N_15 
ROOT
ATOM      1  C   LIG d   1       8.428   2.012  -4.430  0.00  0.00    -0.004 A 
ATOM      2  C   LIG d   1       9.194   2.554  -3.395  0.00  0.00    -0.046 A 
ATOM      3  C   LIG d   1      10.150   3.506  -3.674  0.00  0.00     0.016 A 
ATOM      4  C   LIG d   1      10.357   3.930  -4.977  0.00  0.00     0.275 A 
ATOM      5  C   LIG d   1       9.604   3.406  -6.010  0.00  0.00     0.037 A 
ATOM      6  C   LIG d   1       8.641   2.443  -5.749  0.00  0.00     0.038 A 
ATOM      7  H   LIG d   1       9.036   2.228  -2.378  0.00  0.00     0.063 H 
ATOM      8  H   LIG d   1      10.742   3.924  -2.873  0.00  0.00     0.069 H 
ATOM      9  H   LIG d   1       9.769   3.745  -7.021  0.00  0.00     0.070 H 
ENDROOT
BRANCH   1  10
ATOM     10  C   LIG d   1       7.404   0.994  -4.140  0.00  0.00    -0.052 C 
ATOM     11  C   LIG d   1       6.348   1.305  -3.369  0.00  0.00    -0.054 C 
ATOM     12  H   LIG d   1       6.251   2.300  -2.963  0.00  0.00     0.062 H 
ATOM     13  H   LIG d   1       7.501  -0.001  -4.546  0.00  0.00     0.062 H 
BRANCH  11  14
ATOM     14  C   LIG d   1       5.323   0.288  -3.079  0.00  0.00    -0.025 A 
ATOM     15  C   LIG d   1       3.991   0.666  -2.887  0.00  0.00    -0.055 A 
ATOM     16  C   LIG d   1       3.037  -0.292  -2.616  0.00  0.00    -0.061 A 
ATOM     17  H   LIG d   1       3.711   1.707  -2.950  0.00  0.00     0.062 H 
ATOM     18  C   LIG d   1       3.395  -1.626  -2.535  0.00  0.00    -0.062 A 
ATOM     19  H   LIG d   1       2.008   0.000  -2.468  0.00  0.00     0.062 H 
ATOM     20  C   LIG d   1       4.712  -2.009  -2.724  0.00  0.00    -0.061 A 
ATOM     21  H   LIG d   1       2.643  -2.372  -2.322  0.00  0.00     0.062 H 
ATOM     22  C   LIG d   1       5.676  -1.063  -3.000  0.00  0.00    -0.055 A 
ATOM     23  H   LIG d   1       4.983  -3.053  -2.659  0.00  0.00     0.062 H 
ATOM     24  H   LIG d   1       6.702  -1.364  -3.152  0.00  0.00     0.062 H 
ENDBRANCH  11  14
ENDBRANCH   1  10
BRANCH   6  25
ATOM     25  N   LIG d   1       7.884   1.910  -6.791  0.00  0.00    -0.357 N 
ATOM     26  H   LIG d   1       6.941   2.126  -6.865  0.00  0.00     0.142 HD
ATOM     27  H   LIG d   1       8.300   1.323  -7.441  0.00  0.00     0.142 HD
ENDBRANCH   6  25
BRANCH   4  28
ATOM     28  N   LIG d   1      11.388   4.953  -5.263  0.00  0.00     0.080 N 
ATOM     29  O   LIG d   1      11.576   5.325  -6.407  0.00  0.00     0.041 OA
ATOM     30  O   LIG d   1      12.044   5.427  -4.353  0.00  0.00    -0.576 OA
ENDBRANCH   4  28
TORSDOF 4
ENDMDL
MODEL 8
REMARK VINA RESULT:      -5.7     11.075     13.264
REMARK  4 active torsions:
REMARK  status: ('A' for Active; 'I' for Inactive)
REMARK    1  A    between atoms: C_4  and  C_7 
REMARK    2  A    between atoms: C_8  and  C_9 
REMARK    3  A    between atoms: C_12  and  N_16 
REMARK    4  A    between atoms: C_14  and  N_15 
ROOT
ATOM      1  C   LIG d   1      10.020   6.758  -2.396  0.00  0.00    -0.004 A 
ATOM      2  C   LIG d   1      10.064   8.004  -1.765  0.00  0.00    -0.046 A 
ATOM      3  C   LIG d   1      10.439   8.091  -0.442  0.00  0.00     0.016 A 
ATOM      4  C   LIG d   1      10.773   6.949   0.268  0.00  0.00     0.275 A 
ATOM      5  C   LIG d   1      10.739   5.711  -0.344  0.00  0.00     0.037 A 
ATOM      6  C   LIG d   1      10.359   5.603  -1.673  0.00  0.00     0.038 A 
ATOM      7  H   LIG d   1       9.805   8.897  -2.314  0.00  0.00     0.063 H 
ATOM      8  H   LIG d   1      10.472   9.055   0.045  0.00  0.00     0.069 H 
ATOM      9  H   LIG d   1      11.005   4.827   0.215  0.00  0.00     0.070 H 
ENDROOT
BRANCH   1  10
ATOM     10  C   LIG d   1       9.620   6.656  -3.810  0.00  0.00    -0.052 C 
ATOM     11  C   LIG d   1      10.211   7.435  -4.731  0.00  0.00    -0.054 C 
ATOM     12  H   LIG d   1      10.977   8.135  -4.436  0.00  0.00     0.062 H 
ATOM     13  H   LIG d   1       8.854   5.956  -4.105  0.00  0.00     0.062 H 
BRANCH  11  14
ATOM     14  C   LIG d   1       9.812   7.333  -6.146  0.00  0.00    -0.025 A 
ATOM     15  C   LIG d   1       9.243   8.430  -6.797  0.00  0.00    -0.055 A 
ATOM     16  C   LIG d   1       8.871   8.327  -8.121  0.00  0.00    -0.061 A 
ATOM     17  H   LIG d   1       9.093   9.357  -6.263  0.00  0.00     0.062 H 
ATOM     18  C   LIG d   1       9.062   7.141  -8.806  0.00  0.00    -0.062 A 
ATOM     19  H   LIG d   1       8.432   9.176  -8.624  0.00  0.00     0.062 H 
ATOM     20  C   LIG d   1       9.625   6.048  -8.169  0.00  0.00    -0.061 A 
ATOM     21  H   LIG d   1       8.770   7.065  -9.843  0.00  0.00     0.062 H 
ATOM     22  C   LIG d   1      10.005   6.138  -6.846  0.00  0.00    -0.055 A 
ATOM     23  H   LIG d   1       9.771   5.125  -8.710  0.00  0.00     0.062 H 
ATOM     24  H   LIG d   1      10.448   5.287  -6.352  0.00  0.00     0.062 H 
ENDBRANCH  11  14
ENDBRANCH   1  10
BRANCH   6  25
ATOM     25  N   LIG d   1      10.318   4.353  -2.290  0.00  0.00    -0.357 N 
ATOM     26  H   LIG d   1       9.522   4.075  -2.769  0.00  0.00     0.142 HD
ATOM     27  H   LIG d   1      11.086   3.764  -2.241  0.00  0.00     0.142 HD
ENDBRANCH   6  25
BRANCH   4  28
ATOM     28  N   LIG d   1      11.174   7.057   1.689  0.00  0.00     0.080 N 
ATOM     29  O   LIG d   1      11.577   8.120   2.129  0.00  0.00     0.041 OA
ATOM     30  O   LIG d   1      11.096   6.086   2.419  0.00  0.00    -0.576 OA
ENDBRANCH   4  28
TORSDOF 4
ENDMDL
MODEL 9
REMARK VINA RESULT:      -5.6      6.369      7.488
REMARK  4 active torsions:
REMARK  status: ('A' for Active; 'I' for Inactive)
REMARK    1  A    between atoms: C_4  and  C_7 
REMARK    2  A    between atoms: C_8  and  C_9 
REMARK    3  A    between atoms: C_12  and  N_16 
REMARK    4  A    between atoms: C_14  and  N_15 
ROOT
ATOM      1  C   LIG d   1       7.836  -3.585  -4.192  0.00  0.00    -0.004 A 
ATOM      2  C   LIG d   1       7.414  -4.221  -5.363  0.00  0.00    -0.046 A 
ATOM      3  C   LIG d   1       8.074  -5.345  -5.809  0.00  0.00     0.016 A 
ATOM      4  C   LIG d   1       9.154  -5.849  -5.104  0.00  0.00     0.275 A 
ATOM      5  C   LIG d   1       9.579  -5.235  -3.942  0.00  0.00     0.037 A 
ATOM      6  C   LIG d   1       8.931  -4.099  -3.480  0.00  0.00     0.038 A 
ATOM      7  H   LIG d   1       6.572  -3.832  -5.916  0.00  0.00     0.063 H 
ATOM      8  H   LIG d   1       7.748  -5.835  -6.715  0.00  0.00     0.069 H 
ATOM      9  H   LIG d   1      10.419  -5.637  -3.396  0.00  0.00     0.070 H 
ENDROOT
BRANCH   1  10
ATOM     10  C   LIG d   1       7.136  -2.383  -3.708  0.00  0.00    -0.052 C 
ATOM     11  C   LIG d   1       5.793  -2.347  -3.698  0.00  0.00    -0.054 C 
ATOM     12  H   LIG d   1       5.227  -3.198  -4.044  0.00  0.00     0.062 H 
ATOM     13  H   LIG d   1       7.702  -1.532  -3.361  0.00  0.00     0.062 H 
BRANCH  11  14
ATOM     14  C   LIG d   1       5.092  -1.145  -3.212  0.00  0.00    -0.025 A 
ATOM     15  C   LIG d   1       5.814   0.008  -2.892  0.00  0.00    -0.055 A 
ATOM     16  C   LIG d   1       5.152   1.129  -2.438  0.00  0.00    -0.061 A 
ATOM     17  H   LIG d   1       6.889   0.020  -2.999  0.00  0.00     0.062 H 
ATOM     18  C   LIG d   1       3.775   1.115  -2.301  0.00  0.00    -0.062 A 
ATOM     19  H   LIG d   1       5.709   2.020  -2.190  0.00  0.00     0.062 H 
ATOM     20  C   LIG d   1       3.053  -0.023  -2.616  0.00  0.00    -0.061 A 
ATOM     21  H   LIG d   1       3.261   1.996  -1.945  0.00  0.00     0.062 H 
ATOM     22  C   LIG d   1       3.701  -1.150  -3.074  0.00  0.00    -0.055 A 
ATOM     23  H   LIG d   1       1.978  -0.026  -2.506  0.00  0.00     0.062 H 
ATOM     24  H   LIG d   1       3.136  -2.035  -3.324  0.00  0.00     0.062 H 
ENDBRANCH  11  14
ENDBRANCH   1  10
BRANCH   6  25
ATOM     25  N   LIG d   1       9.362  -3.474  -2.311  0.00  0.00    -0.357 N 
ATOM     26  H   LIG d   1       8.744  -3.344  -1.574  0.00  0.00     0.142 HD
ATOM     27  H   LIG d   1      10.279  -3.170  -2.234  0.00  0.00     0.142 HD
ENDBRANCH   6  25
BRANCH   4  28
ATOM     28  N   LIG d   1       9.854  -7.058  -5.595  0.00  0.00     0.080 N 
ATOM     29  O   LIG d   1      10.710  -7.588  -4.909  0.00  0.00     0.041 OA
ATOM     30  O   LIG d   1       9.570  -7.526  -6.683  0.00  0.00    -0.576 OA
ENDBRANCH   4  28
TORSDOF 4
ENDMDL
