MODEL 1
REMARK VINA RESULT:      -8.0      0.000      0.000
REMARK  3 active torsions:
REMARK  status: ('A' for Active; 'I' for Inactive)
REMARK    1  A    between atoms: C_4  and  C_7 
REMARK    2  A    between atoms: C_7  and  O_8 
REMARK    3  A    between atoms: O_8  and  C_9 
ROOT
ATOM      1  C   LIG d   1       3.204   0.629  -7.554  0.00  0.00     0.124 A 
ATOM      2  C   LIG d   1       4.142   1.184  -8.419  0.00  0.00    -0.019 A 
ATOM      3  C   LIG d   1       4.191   0.781  -9.734  0.00  0.00    -0.047 A 
ATOM      4  C   LIG d   1       3.299  -0.185 -10.199  0.00  0.00     0.025 A 
ATOM      5  C   LIG d   1       3.337  -0.631 -11.605  0.00  0.00    -0.000 A 
ATOM      6  C   LIG d   1       4.249  -0.114 -12.517  0.00  0.00    -0.053 A 
ATOM      7  C   LIG d   1       4.240  -0.566 -13.821  0.00  0.00    -0.061 A 
ATOM      8  C   LIG d   1       3.330  -1.531 -14.227  0.00  0.00    -0.061 A 
ATOM      9  C   LIG d   1       2.417  -2.056 -13.336  0.00  0.00    -0.047 A 
ATOM     10  C   LIG d   1       2.410  -1.613 -12.016  0.00  0.00     0.067 A 
ATOM     11  C   LIG d   1       1.459  -2.137 -11.027  0.00  0.00     0.345 A 
ATOM     12  O   LIG d   1       0.650  -2.984 -11.354  0.00  0.00    -0.244 OA
ATOM     13  O   LIG d   1       1.480  -1.686  -9.762  0.00  0.00    -0.422 OA
ATOM     14  C   LIG d   1       2.352  -0.748  -9.330  0.00  0.00     0.143 A 
ATOM     15  C   LIG d   1       2.314  -0.331  -8.006  0.00  0.00     0.023 A 
ATOM     16  H   LIG d   1       4.831   1.934  -8.058  0.00  0.00     0.065 H 
ATOM     17  H   LIG d   1       4.918   1.213 -10.405  0.00  0.00     0.063 H 
ATOM     18  H   LIG d   1       4.958   0.640 -12.209  0.00  0.00     0.062 H 
ATOM     19  H   LIG d   1       4.948  -0.166 -14.532  0.00  0.00     0.062 H 
ATOM     20  H   LIG d   1       3.336  -1.875 -15.251  0.00  0.00     0.062 H 
ATOM     21  H   LIG d   1       1.711  -2.807 -13.661  0.00  0.00     0.063 H 
ATOM     22  H   LIG d   1       1.591  -0.757  -7.328  0.00  0.00     0.069 H 
ENDROOT
BRANCH   1  23
ATOM     23  O   LIG d   1       3.160   1.031  -6.257  0.00  0.00    -0.487 OA
BRANCH  23  24
ATOM     24  C   LIG d   1       2.344   0.265  -5.368  0.00  0.00     0.115 C 
ATOM     25  H   LIG d   1       1.405   0.791  -5.192  0.00  0.00     0.075 H 
ATOM     26  H   LIG d   1       2.136  -0.708  -5.813  0.00  0.00     0.075 H 
BRANCH  24  27
ATOM     27  C   LIG d   1       3.067   0.075  -4.060  0.00  0.00    -0.010 A 
ATOM     28  C   LIG d   1       3.482   1.175  -3.334  0.00  0.00    -0.055 A 
ATOM     29  C   LIG d   1       4.146   1.001  -2.133  0.00  0.00    -0.061 A 
ATOM     30  H   LIG d   1       3.289   2.172  -3.704  0.00  0.00     0.062 H 
ATOM     31  C   LIG d   1       4.394  -0.273  -1.659  0.00  0.00    -0.062 A 
ATOM     32  H   LIG d   1       4.470   1.861  -1.566  0.00  0.00     0.062 H 
ATOM     33  C   LIG d   1       3.978  -1.374  -2.386  0.00  0.00    -0.061 A 
ATOM     34  H   LIG d   1       4.913  -0.409  -0.722  0.00  0.00     0.062 H 
ATOM     35  C   LIG d   1       3.311  -1.200  -3.584  0.00  0.00    -0.055 A 
ATOM     36  H   LIG d   1       4.173  -2.369  -2.015  0.00  0.00     0.062 H 
ATOM     37  H   LIG d   1       2.982  -2.059  -4.149  0.00  0.00     0.062 H 
ENDBRANCH  24  27
ENDBRANCH  23  24
ENDBRANCH   1  23
TORSDOF 3
ENDMDL
MODEL 2
REMARK VINA RESULT:      -7.8      1.533      1.954
REMARK  3 active torsions:
REMARK  status: ('A' for Active; 'I' for Inactive)
REMARK    1  A    between atoms: C_4  and  C_7 
REMARK    2  A    between atoms: C_7  and  O_8 
REMARK    3  A    between atoms: O_8  and  C_9 
ROOT
ATOM      1  C   LIG d   1       3.063   0.434  -7.133  0.00  0.00     0.124 A 
ATOM      2  C   LIG d   1       2.729   1.146  -8.282  0.00  0.00    -0.019 A 
ATOM      3  C   LIG d   1       2.723   0.516  -9.506  0.00  0.00    -0.047 A 
ATOM      4  C   LIG d   1       3.053  -0.837  -9.594  0.00  0.00     0.025 A 
ATOM      5  C   LIG d   1       3.053  -1.528 -10.897  0.00  0.00    -0.000 A 
ATOM      6  C   LIG d   1       2.728  -0.874 -12.078  0.00  0.00    -0.053 A 
ATOM      7  C   LIG d   1       2.743  -1.570 -13.270  0.00  0.00    -0.061 A 
ATOM      8  C   LIG d   1       3.081  -2.916 -13.297  0.00  0.00    -0.061 A 
ATOM      9  C   LIG d   1       3.406  -3.583 -12.135  0.00  0.00    -0.047 A 
ATOM     10  C   LIG d   1       3.397  -2.897 -10.922  0.00  0.00     0.067 A 
ATOM     11  C   LIG d   1       3.734  -3.559  -9.655  0.00  0.00     0.345 A 
ATOM     12  O   LIG d   1       4.033  -4.738  -9.648  0.00  0.00    -0.244 OA
ATOM     13  O   LIG d   1       3.713  -2.868  -8.503  0.00  0.00    -0.422 OA
ATOM     14  C   LIG d   1       3.390  -1.557  -8.439  0.00  0.00     0.143 A 
ATOM     15  C   LIG d   1       3.392  -0.909  -7.211  0.00  0.00     0.023 A 
ATOM     16  H   LIG d   1       2.472   2.192  -8.212  0.00  0.00     0.065 H 
ATOM     17  H   LIG d   1       2.463   1.067 -10.397  0.00  0.00     0.063 H 
ATOM     18  H   LIG d   1       2.460   0.172 -12.065  0.00  0.00     0.062 H 
ATOM     19  H   LIG d   1       2.491  -1.064 -14.190  0.00  0.00     0.062 H 
ATOM     20  H   LIG d   1       3.088  -3.446 -14.238  0.00  0.00     0.062 H 
ATOM     21  H   LIG d   1       3.667  -4.631 -12.165  0.00  0.00     0.063 H 
ATOM     22  H   LIG d   1       3.651  -1.452  -6.315  0.00  0.00     0.069 H 
ENDROOT
BRANCH   1  23
ATOM     23  O   LIG d   1       3.067   1.061  -5.928  0.00  0.00    -0.487 OA
BRANCH  23  24
ATOM     24  C   LIG d   1       2.211   0.526  -4.917  0.00  0.00     0.115 C 
ATOM     25  H   LIG d   1       1.492   1.286  -4.610  0.00  0.00     0.075 H 
ATOM     26  H   LIG d   1       1.678  -0.339  -5.312  0.00  0.00     0.075 H 
BRANCH  24  27
ATOM     27  C   LIG d   1       3.038   0.108  -3.729  0.00  0.00    -0.010 A 
ATOM     28  C   LIG d   1       3.168  -1.231  -3.414  0.00  0.00    -0.055 A 
ATOM     29  C   LIG d   1       3.927  -1.615  -2.324  0.00  0.00    -0.061 A 
ATOM     30  H   LIG d   1       2.676  -1.979  -4.019  0.00  0.00     0.062 H 
ATOM     31  C   LIG d   1       4.557  -0.659  -1.549  0.00  0.00    -0.062 A 
ATOM     32  H   LIG d   1       4.028  -2.662  -2.078  0.00  0.00     0.062 H 
ATOM     33  C   LIG d   1       4.428   0.681  -1.865  0.00  0.00    -0.061 A 
ATOM     34  H   LIG d   1       5.150  -0.959  -0.698  0.00  0.00     0.062 H 
ATOM     35  C   LIG d   1       3.673   1.065  -2.957  0.00  0.00    -0.055 A 
ATOM     36  H   LIG d   1       4.920   1.427  -1.259  0.00  0.00     0.062 H 
ATOM     37  H   LIG d   1       3.576   2.111  -3.206  0.00  0.00     0.062 H 
ENDBRANCH  24  27
ENDBRANCH  23  24
ENDBRANCH   1  23
TORSDOF 3
ENDMDL
MODEL 3
REMARK VINA RESULT:      -7.6      1.718      2.116
REMARK  3 active torsions:
REMARK  status: ('A' for Active; 'I' for Inactive)
REMARK    1  A    between atoms: C_4  and  C_7 
REMARK    2  A    between atoms: C_7  and  O_8 
REMARK    3  A    between atoms: O_8  and  C_9 
ROOT
ATOM      1  C   LIG d   1       3.236  -0.108  -7.024  0.00  0.00     0.124 A 
ATOM      2  C   LIG d   1       4.098  -1.200  -7.004  0.00  0.00    -0.019 A 
ATOM      3  C   LIG d   1       4.076  -2.115  -8.033  0.00  0.00    -0.047 A 
ATOM      4  C   LIG d   1       3.190  -1.946  -9.096  0.00  0.00     0.025 A 
ATOM      5  C   LIG d   1       3.152  -2.915 -10.207  0.00  0.00    -0.000 A 
ATOM      6  C   LIG d   1       3.987  -4.025 -10.244  0.00  0.00    -0.053 A 
ATOM      7  C   LIG d   1       3.909  -4.900 -11.309  0.00  0.00    -0.061 A 
ATOM      8  C   LIG d   1       3.006  -4.682 -12.339  0.00  0.00    -0.061 A 
ATOM      9  C   LIG d   1       2.169  -3.585 -12.320  0.00  0.00    -0.047 A 
ATOM     10  C   LIG d   1       2.232  -2.691 -11.254  0.00  0.00     0.067 A 
ATOM     11  C   LIG d   1       1.365  -1.507 -11.183  0.00  0.00     0.345 A 
ATOM     12  O   LIG d   1       0.563  -1.290 -12.072  0.00  0.00    -0.244 OA
ATOM     13  O   LIG d   1       1.452  -0.664 -10.141  0.00  0.00    -0.422 OA
ATOM     14  C   LIG d   1       2.319  -0.846  -9.120  0.00  0.00     0.143 A 
ATOM     15  C   LIG d   1       2.352   0.069  -8.076  0.00  0.00     0.023 A 
ATOM     16  H   LIG d   1       4.785  -1.330  -6.181  0.00  0.00     0.065 H 
ATOM     17  H   LIG d   1       4.746  -2.962  -8.018  0.00  0.00     0.063 H 
ATOM     18  H   LIG d   1       4.695  -4.200  -9.449  0.00  0.00     0.062 H 
ATOM     19  H   LIG d   1       4.557  -5.764 -11.341  0.00  0.00     0.062 H 
ATOM     20  H   LIG d   1       2.959  -5.376 -13.165  0.00  0.00     0.062 H 
ATOM     21  H   LIG d   1       1.469  -3.422 -13.126  0.00  0.00     0.063 H 
ATOM     22  H   LIG d   1       1.687   0.919  -8.082  0.00  0.00     0.069 H 
ENDROOT
BRANCH   1  23
ATOM     23  O   LIG d   1       3.261   0.791  -6.007  0.00  0.00    -0.487 OA
BRANCH  23  24
ATOM     24  C   LIG d   1       2.364   0.564  -4.918  0.00  0.00     0.115 C 
ATOM     25  H   LIG d   1       1.857   1.495  -4.664  0.00  0.00     0.075 H 
ATOM     26  H   LIG d   1       1.625  -0.185  -5.206  0.00  0.00     0.075 H 
BRANCH  24  27
ATOM     27  C   LIG d   1       3.139   0.071  -3.723  0.00  0.00    -0.010 A 
ATOM     28  C   LIG d   1       3.790   0.972  -2.903  0.00  0.00    -0.055 A 
ATOM     29  C   LIG d   1       4.501   0.520  -1.806  0.00  0.00    -0.061 A 
ATOM     30  H   LIG d   1       3.746   2.030  -3.119  0.00  0.00     0.062 H 
ATOM     31  C   LIG d   1       4.559  -0.833  -1.530  0.00  0.00    -0.062 A 
ATOM     32  H   LIG d   1       5.011   1.224  -1.166  0.00  0.00     0.062 H 
ATOM     33  C   LIG d   1       3.906  -1.734  -2.350  0.00  0.00    -0.061 A 
ATOM     34  H   LIG d   1       5.114  -1.186  -0.674  0.00  0.00     0.062 H 
ATOM     35  C   LIG d   1       3.192  -1.282  -3.444  0.00  0.00    -0.055 A 
ATOM     36  H   LIG d   1       3.951  -2.791  -2.134  0.00  0.00     0.062 H 
ATOM     37  H   LIG d   1       2.678  -1.986  -4.082  0.00  0.00     0.062 H 
ENDBRANCH  24  27
ENDBRANCH  23  24
ENDBRANCH   1  23
TORSDOF 3
ENDMDL
MODEL 4
REMARK VINA RESULT:      -7.5      2.504      3.746
REMARK  3 active torsions:
REMARK  status: ('A' for Active; 'I' for Inactive)
REMARK    1  A    between atoms: C_4  and  C_7 
REMARK    2  A    between atoms: C_7  and  O_8 
REMARK    3  A    between atoms: O_8  and  C_9 
ROOT
ATOM      1  C   LIG d   1       6.163  -1.565  -5.808  0.00  0.00     0.124 A 
ATOM      2  C   LIG d   1       5.771  -2.779  -6.365  0.00  0.00    -0.019 A 
ATOM      3  C   LIG d   1       4.797  -2.809  -7.337  0.00  0.00    -0.047 A 
ATOM      4  C   LIG d   1       4.202  -1.621  -7.763  0.00  0.00     0.025 A 
ATOM      5  C   LIG d   1       3.155  -1.634  -8.802  0.00  0.00    -0.000 A 
ATOM      6  C   LIG d   1       2.722  -2.812  -9.397  0.00  0.00    -0.053 A 
ATOM      7  C   LIG d   1       1.739  -2.765 -10.365  0.00  0.00    -0.061 A 
ATOM      8  C   LIG d   1       1.182  -1.554 -10.749  0.00  0.00    -0.061 A 
ATOM      9  C   LIG d   1       1.600  -0.373 -10.170  0.00  0.00    -0.047 A 
ATOM     10  C   LIG d   1       2.590  -0.400  -9.191  0.00  0.00     0.067 A 
ATOM     11  C   LIG d   1       3.072   0.827  -8.542  0.00  0.00     0.345 A 
ATOM     12  O   LIG d   1       2.602   1.904  -8.858  0.00  0.00    -0.244 OA
ATOM     13  O   LIG d   1       4.029   0.766  -7.602  0.00  0.00    -0.422 OA
ATOM     14  C   LIG d   1       4.594  -0.396  -7.203  0.00  0.00     0.143 A 
ATOM     15  C   LIG d   1       5.578  -0.381  -6.225  0.00  0.00     0.023 A 
ATOM     16  H   LIG d   1       6.234  -3.698  -6.036  0.00  0.00     0.065 H 
ATOM     17  H   LIG d   1       4.493  -3.750  -7.770  0.00  0.00     0.063 H 
ATOM     18  H   LIG d   1       3.153  -3.758  -9.107  0.00  0.00     0.062 H 
ATOM     19  H   LIG d   1       1.400  -3.680 -10.829  0.00  0.00     0.062 H 
ATOM     20  H   LIG d   1       0.415  -1.534 -11.508  0.00  0.00     0.062 H 
ATOM     21  H   LIG d   1       1.161   0.566 -10.475  0.00  0.00     0.063 H 
ATOM     22  H   LIG d   1       5.888   0.556  -5.786  0.00  0.00     0.069 H 
ENDROOT
BRANCH   1  23
ATOM     23  O   LIG d   1       7.126  -1.542  -4.850  0.00  0.00    -0.487 OA
BRANCH  23  24
ATOM     24  C   LIG d   1       6.738  -1.937  -3.532  0.00  0.00     0.115 C 
ATOM     25  H   LIG d   1       6.380  -2.966  -3.552  0.00  0.00     0.075 H 
ATOM     26  H   LIG d   1       7.597  -1.864  -2.864  0.00  0.00     0.075 H 
BRANCH  24  27
ATOM     27  C   LIG d   1       5.639  -1.031  -3.040  0.00  0.00    -0.010 A 
ATOM     28  C   LIG d   1       5.907   0.297  -2.772  0.00  0.00    -0.055 A 
ATOM     29  C   LIG d   1       4.898   1.129  -2.320  0.00  0.00    -0.061 A 
ATOM     30  H   LIG d   1       6.904   0.688  -2.915  0.00  0.00     0.062 H 
ATOM     31  C   LIG d   1       3.622   0.630  -2.136  0.00  0.00    -0.062 A 
ATOM     32  H   LIG d   1       5.107   2.167  -2.111  0.00  0.00     0.062 H 
ATOM     33  C   LIG d   1       3.355  -0.699  -2.405  0.00  0.00    -0.061 A 
ATOM     34  H   LIG d   1       2.835   1.279  -1.783  0.00  0.00     0.062 H 
ATOM     35  C   LIG d   1       4.361  -1.529  -2.861  0.00  0.00    -0.055 A 
ATOM     36  H   LIG d   1       2.358  -1.089  -2.261  0.00  0.00     0.062 H 
ATOM     37  H   LIG d   1       4.151  -2.567  -3.075  0.00  0.00     0.062 H 
ENDBRANCH  24  27
ENDBRANCH  23  24
ENDBRANCH   1  23
TORSDOF 3
ENDMDL
MODEL 5
REMARK VINA RESULT:      -7.5      1.627      2.529
REMARK  3 active torsions:
REMARK  status: ('A' for Active; 'I' for Inactive)
REMARK    1  A    between atoms: C_4  and  C_7 
REMARK    2  A    between atoms: C_7  and  O_8 
REMARK    3  A    between atoms: O_8  and  C_9 
ROOT
ATOM      1  C   LIG d   1       3.578   0.168  -7.599  0.00  0.00     0.124 A 
ATOM      2  C   LIG d   1       2.298  -0.248  -7.954  0.00  0.00    -0.019 A 
ATOM      3  C   LIG d   1       2.044  -0.674  -9.238  0.00  0.00    -0.047 A 
ATOM      4  C   LIG d   1       3.069  -0.689 -10.183  0.00  0.00     0.025 A 
ATOM      5  C   LIG d   1       2.815  -1.142 -11.564  0.00  0.00    -0.000 A 
ATOM      6  C   LIG d   1       1.560  -1.569 -11.979  0.00  0.00    -0.053 A 
ATOM      7  C   LIG d   1       1.378  -1.983 -13.283  0.00  0.00    -0.061 A 
ATOM      8  C   LIG d   1       2.436  -1.975 -14.181  0.00  0.00    -0.061 A 
ATOM      9  C   LIG d   1       3.689  -1.554 -13.787  0.00  0.00    -0.047 A 
ATOM     10  C   LIG d   1       3.893  -1.133 -12.475  0.00  0.00     0.067 A 
ATOM     11  C   LIG d   1       5.206  -0.676 -12.002  0.00  0.00     0.345 A 
ATOM     12  O   LIG d   1       6.152  -0.658 -12.767  0.00  0.00    -0.244 OA
ATOM     13  O   LIG d   1       5.368  -0.277 -10.730  0.00  0.00    -0.422 OA
ATOM     14  C   LIG d   1       4.360  -0.271  -9.829  0.00  0.00     0.143 A 
ATOM     15  C   LIG d   1       4.603   0.157  -8.530  0.00  0.00     0.023 A 
ATOM     16  H   LIG d   1       1.505  -0.238  -7.221  0.00  0.00     0.065 H 
ATOM     17  H   LIG d   1       1.051  -0.998  -9.513  0.00  0.00     0.063 H 
ATOM     18  H   LIG d   1       0.733  -1.582 -11.285  0.00  0.00     0.062 H 
ATOM     19  H   LIG d   1       0.403  -2.316 -13.609  0.00  0.00     0.062 H 
ATOM     20  H   LIG d   1       2.277  -2.302 -15.198  0.00  0.00     0.062 H 
ATOM     21  H   LIG d   1       4.508  -1.552 -14.492  0.00  0.00     0.063 H 
ATOM     22  H   LIG d   1       5.592   0.482  -8.246  0.00  0.00     0.069 H 
ENDROOT
BRANCH   1  23
ATOM     23  O   LIG d   1       3.824   0.587  -6.330  0.00  0.00    -0.487 OA
BRANCH  23  24
ATOM     24  C   LIG d   1       2.774   0.418  -5.377  0.00  0.00     0.115 C 
ATOM     25  H   LIG d   1       2.225   1.354  -5.269  0.00  0.00     0.075 H 
ATOM     26  H   LIG d   1       2.094  -0.363  -5.719  0.00  0.00     0.075 H 
BRANCH  24  27
ATOM     27  C   LIG d   1       3.362   0.023  -4.047  0.00  0.00    -0.010 A 
ATOM     28  C   LIG d   1       3.477  -1.312  -3.711  0.00  0.00    -0.055 A 
ATOM     29  C   LIG d   1       4.018  -1.674  -2.490  0.00  0.00    -0.061 A 
ATOM     30  H   LIG d   1       3.145  -2.074  -4.401  0.00  0.00     0.062 H 
ATOM     31  C   LIG d   1       4.442  -0.700  -1.606  0.00  0.00    -0.062 A 
ATOM     32  H   LIG d   1       4.108  -2.717  -2.228  0.00  0.00     0.062 H 
ATOM     33  C   LIG d   1       4.327   0.636  -1.943  0.00  0.00    -0.061 A 
ATOM     34  H   LIG d   1       4.864  -0.982  -0.653  0.00  0.00     0.062 H 
ATOM     35  C   LIG d   1       3.792   0.998  -3.165  0.00  0.00    -0.055 A 
ATOM     36  H   LIG d   1       4.659   1.397  -1.252  0.00  0.00     0.062 H 
ATOM     37  H   LIG d   1       3.706   2.041  -3.429  0.00  0.00     0.062 H 
ENDBRANCH  24  27
ENDBRANCH  23  24
ENDBRANCH   1  23
TORSDOF 3
ENDMDL
MODEL 6
REMARK VINA RESULT:      -7.4      6.672      8.746
REMARK  3 active torsions:
REMARK  status: ('A' for Active; 'I' for Inactive)
REMARK    1  A    between atoms: C_4  and  C_7 
REMARK    2  A    between atoms: C_7  and  O_8 
REMARK    3  A    between atoms: O_8  and  C_9 
ROOT
ATOM      1  C   LIG d   1       8.956   1.753  -4.827  0.00  0.00     0.124 A 
ATOM      2  C   LIG d   1       8.945   0.477  -5.383  0.00  0.00    -0.019 A 
ATOM      3  C   LIG d   1       7.960  -0.419  -5.034  0.00  0.00    -0.047 A 
ATOM      4  C   LIG d   1       6.972  -0.047  -4.122  0.00  0.00     0.025 A 
ATOM      5  C   LIG d   1       5.909  -0.993  -3.735  0.00  0.00    -0.000 A 
ATOM      6  C   LIG d   1       5.844  -2.280  -4.255  0.00  0.00    -0.053 A 
ATOM      7  C   LIG d   1       4.826  -3.124  -3.859  0.00  0.00    -0.061 A 
ATOM      8  C   LIG d   1       3.871  -2.700  -2.947  0.00  0.00    -0.061 A 
ATOM      9  C   LIG d   1       3.919  -1.426  -2.420  0.00  0.00    -0.047 A 
ATOM     10  C   LIG d   1       4.938  -0.559  -2.807  0.00  0.00     0.067 A 
ATOM     11  C   LIG d   1       5.036   0.808  -2.278  0.00  0.00     0.345 A 
ATOM     12  O   LIG d   1       4.213   1.208  -1.477  0.00  0.00    -0.244 OA
ATOM     13  O   LIG d   1       6.032   1.618  -2.674  0.00  0.00    -0.422 OA
ATOM     14  C   LIG d   1       6.980   1.238  -3.560  0.00  0.00     0.143 A 
ATOM     15  C   LIG d   1       7.979   2.131  -3.921  0.00  0.00     0.023 A 
ATOM     16  H   LIG d   1       9.710   0.190  -6.090  0.00  0.00     0.065 H 
ATOM     17  H   LIG d   1       7.951  -1.409  -5.466  0.00  0.00     0.063 H 
ATOM     18  H   LIG d   1       6.581  -2.616  -4.969  0.00  0.00     0.062 H 
ATOM     19  H   LIG d   1       4.773  -4.125  -4.262  0.00  0.00     0.062 H 
ATOM     20  H   LIG d   1       3.081  -3.373  -2.647  0.00  0.00     0.062 H 
ATOM     21  H   LIG d   1       3.171  -1.103  -1.711  0.00  0.00     0.063 H 
ATOM     22  H   LIG d   1       7.996   3.123  -3.495  0.00  0.00     0.069 H 
ENDROOT
BRANCH   1  23
ATOM     23  O   LIG d   1       9.930   2.633  -5.175  0.00  0.00    -0.487 OA
BRANCH  23  24
ATOM     24  C   LIG d   1      10.824   3.053  -4.142  0.00  0.00     0.115 C 
ATOM     25  H   LIG d   1      10.816   2.321  -3.334  0.00  0.00     0.075 H 
ATOM     26  H   LIG d   1      11.833   3.136  -4.547  0.00  0.00     0.075 H 
BRANCH  24  27
ATOM     27  C   LIG d   1      10.383   4.392  -3.611  0.00  0.00    -0.010 A 
ATOM     28  C   LIG d   1       9.814   5.319  -4.462  0.00  0.00    -0.055 A 
ATOM     29  C   LIG d   1       9.408   6.549  -3.975  0.00  0.00    -0.061 A 
ATOM     30  H   LIG d   1       9.686   5.086  -5.509  0.00  0.00     0.062 H 
ATOM     31  C   LIG d   1       9.572   6.849  -2.636  0.00  0.00    -0.062 A 
ATOM     32  H   LIG d   1       8.964   7.274  -4.640  0.00  0.00     0.062 H 
ATOM     33  C   LIG d   1      10.141   5.921  -1.784  0.00  0.00    -0.061 A 
ATOM     34  H   LIG d   1       9.257   7.809  -2.255  0.00  0.00     0.062 H 
ATOM     35  C   LIG d   1      10.542   4.690  -2.270  0.00  0.00    -0.055 A 
ATOM     36  H   LIG d   1      10.269   6.155  -0.738  0.00  0.00     0.062 H 
ATOM     37  H   LIG d   1      10.982   3.963  -1.604  0.00  0.00     0.062 H 
ENDBRANCH  24  27
ENDBRANCH  23  24
ENDBRANCH   1  23
TORSDOF 3
ENDMDL
MODEL 7
REMARK VINA RESULT:      -7.1      6.295      8.959
REMARK  3 active torsions:
REMARK  status: ('A' for Active; 'I' for Inactive)
REMARK    1  A    between atoms: C_4  and  C_7 
REMARK    2  A    between atoms: C_7  and  O_8 
REMARK    3  A    between atoms: O_8  and  C_9 
ROOT
ATOM      1  C   LIG d   1       7.879   0.827  -4.862  0.00  0.00     0.124 A 
ATOM      2  C   LIG d   1       8.062   1.279  -6.165  0.00  0.00    -0.019 A 
ATOM      3  C   LIG d   1       8.665   2.495  -6.395  0.00  0.00    -0.047 A 
ATOM      4  C   LIG d   1       9.092   3.274  -5.320  0.00  0.00     0.025 A 
ATOM      5  C   LIG d   1       9.740   4.580  -5.546  0.00  0.00    -0.000 A 
ATOM      6  C   LIG d   1       9.951   5.086  -6.823  0.00  0.00    -0.053 A 
ATOM      7  C   LIG d   1      10.562   6.314  -6.977  0.00  0.00    -0.061 A 
ATOM      8  C   LIG d   1      10.967   7.045  -5.870  0.00  0.00    -0.061 A 
ATOM      9  C   LIG d   1      10.765   6.560  -4.594  0.00  0.00    -0.047 A 
ATOM     10  C   LIG d   1      10.150   5.323  -4.418  0.00  0.00     0.067 A 
ATOM     11  C   LIG d   1       9.912   4.758  -3.083  0.00  0.00     0.345 A 
ATOM     12  O   LIG d   1      10.256   5.377  -2.094  0.00  0.00    -0.244 OA
ATOM     13  O   LIG d   1       9.317   3.562  -2.949  0.00  0.00    -0.422 OA
ATOM     14  C   LIG d   1       8.910   2.822  -4.005  0.00  0.00     0.143 A 
ATOM     15  C   LIG d   1       8.300   1.593  -3.788  0.00  0.00     0.023 A 
ATOM     16  H   LIG d   1       7.731   0.675  -6.997  0.00  0.00     0.065 H 
ATOM     17  H   LIG d   1       8.807   2.846  -7.406  0.00  0.00     0.063 H 
ATOM     18  H   LIG d   1       9.643   4.520  -7.689  0.00  0.00     0.062 H 
ATOM     19  H   LIG d   1      10.728   6.709  -7.968  0.00  0.00     0.062 H 
ATOM     20  H   LIG d   1      11.444   8.005  -6.007  0.00  0.00     0.062 H 
ATOM     21  H   LIG d   1      11.084   7.136  -3.737  0.00  0.00     0.063 H 
ATOM     22  H   LIG d   1       8.153   1.234  -2.781  0.00  0.00     0.069 H 
ENDROOT
BRANCH   1  23
ATOM     23  O   LIG d   1       7.283  -0.374  -4.641  0.00  0.00    -0.487 OA
BRANCH  23  24
ATOM     24  C   LIG d   1       7.023  -0.728  -3.282  0.00  0.00     0.115 C 
ATOM     25  H   LIG d   1       7.406  -1.730  -3.087  0.00  0.00     0.075 H 
ATOM     26  H   LIG d   1       7.516  -0.016  -2.620  0.00  0.00     0.075 H 
BRANCH  24  27
ATOM     27  C   LIG d   1       5.537  -0.701  -3.032  0.00  0.00    -0.010 A 
ATOM     28  C   LIG d   1       4.889   0.506  -2.851  0.00  0.00    -0.055 A 
ATOM     29  C   LIG d   1       3.525   0.531  -2.622  0.00  0.00    -0.061 A 
ATOM     30  H   LIG d   1       5.447   1.430  -2.888  0.00  0.00     0.062 H 
ATOM     31  C   LIG d   1       2.811  -0.651  -2.573  0.00  0.00    -0.062 A 
ATOM     32  H   LIG d   1       3.019   1.474  -2.480  0.00  0.00     0.062 H 
ATOM     33  C   LIG d   1       3.460  -1.858  -2.754  0.00  0.00    -0.061 A 
ATOM     34  H   LIG d   1       1.746  -0.631  -2.394  0.00  0.00     0.062 H 
ATOM     35  C   LIG d   1       4.822  -1.884  -2.989  0.00  0.00    -0.055 A 
ATOM     36  H   LIG d   1       2.901  -2.782  -2.716  0.00  0.00     0.062 H 
ATOM     37  H   LIG d   1       5.327  -2.826  -3.135  0.00  0.00     0.062 H 
ENDBRANCH  24  27
ENDBRANCH  23  24
ENDBRANCH   1  23
TORSDOF 3
ENDMDL
MODEL 8
REMARK VINA RESULT:      -7.0      6.539      9.200
REMARK  3 active torsions:
REMARK  status: ('A' for Active; 'I' for Inactive)
REMARK    1  A    between atoms: C_4  and  C_7 
REMARK    2  A    between atoms: C_7  and  O_8 
REMARK    3  A    between atoms: O_8  and  C_9 
ROOT
ATOM      1  C   LIG d   1       9.471   2.000  -5.529  0.00  0.00     0.124 A 
ATOM      2  C   LIG d   1       8.641   2.819  -4.769  0.00  0.00    -0.019 A 
ATOM      3  C   LIG d   1       7.612   2.270  -4.039  0.00  0.00    -0.047 A 
ATOM      4  C   LIG d   1       7.400   0.892  -4.062  0.00  0.00     0.025 A 
ATOM      5  C   LIG d   1       6.302   0.285  -3.287  0.00  0.00    -0.000 A 
ATOM      6  C   LIG d   1       5.440   1.048  -2.509  0.00  0.00    -0.053 A 
ATOM      7  C   LIG d   1       4.429   0.428  -1.803  0.00  0.00    -0.061 A 
ATOM      8  C   LIG d   1       4.266  -0.948  -1.864  0.00  0.00    -0.061 A 
ATOM      9  C   LIG d   1       5.111  -1.723  -2.631  0.00  0.00    -0.047 A 
ATOM     10  C   LIG d   1       6.137  -1.116  -3.351  0.00  0.00     0.067 A 
ATOM     11  C   LIG d   1       7.066  -1.893  -4.182  0.00  0.00     0.345 A 
ATOM     12  O   LIG d   1       6.948  -3.101  -4.255  0.00  0.00    -0.244 OA
ATOM     13  O   LIG d   1       8.046  -1.275  -4.863  0.00  0.00    -0.422 OA
ATOM     14  C   LIG d   1       8.235   0.063  -4.827  0.00  0.00     0.143 A 
ATOM     15  C   LIG d   1       9.269   0.630  -5.558  0.00  0.00     0.023 A 
ATOM     16  H   LIG d   1       8.807   3.886  -4.751  0.00  0.00     0.065 H 
ATOM     17  H   LIG d   1       6.968   2.905  -3.449  0.00  0.00     0.063 H 
ATOM     18  H   LIG d   1       5.564   2.120  -2.453  0.00  0.00     0.062 H 
ATOM     19  H   LIG d   1       3.758   1.020  -1.198  0.00  0.00     0.062 H 
ATOM     20  H   LIG d   1       3.470  -1.418  -1.306  0.00  0.00     0.062 H 
ATOM     21  H   LIG d   1       4.977  -2.794  -2.673  0.00  0.00     0.063 H 
ATOM     22  H   LIG d   1       9.918   0.003  -6.151  0.00  0.00     0.069 H 
ENDROOT
BRANCH   1  23
ATOM     23  O   LIG d   1      10.486   2.548  -6.248  0.00  0.00    -0.487 OA
BRANCH  23  24
ATOM     24  C   LIG d   1      10.328   2.586  -7.667  0.00  0.00     0.115 C 
ATOM     25  H   LIG d   1      11.276   2.339  -8.146  0.00  0.00     0.075 H 
ATOM     26  H   LIG d   1       9.570   1.861  -7.968  0.00  0.00     0.075 H 
BRANCH  24  27
ATOM     27  C   LIG d   1       9.897   3.967  -8.088  0.00  0.00    -0.010 A 
ATOM     28  C   LIG d   1       9.094   4.132  -9.200  0.00  0.00    -0.055 A 
ATOM     29  C   LIG d   1       8.698   5.400  -9.586  0.00  0.00    -0.061 A 
ATOM     30  H   LIG d   1       8.775   3.271  -9.769  0.00  0.00     0.062 H 
ATOM     31  C   LIG d   1       9.107   6.502  -8.859  0.00  0.00    -0.062 A 
ATOM     32  H   LIG d   1       8.071   5.529 -10.455  0.00  0.00     0.062 H 
ATOM     33  C   LIG d   1       9.910   6.337  -7.746  0.00  0.00    -0.061 A 
ATOM     34  H   LIG d   1       8.799   7.492  -9.160  0.00  0.00     0.062 H 
ATOM     35  C   LIG d   1      10.302   5.070  -7.357  0.00  0.00    -0.055 A 
ATOM     36  H   LIG d   1      10.229   7.198  -7.178  0.00  0.00     0.062 H 
ATOM     37  H   LIG d   1      10.925   4.940  -6.485  0.00  0.00     0.062 H 
ENDBRANCH  24  27
ENDBRANCH  23  24
ENDBRANCH   1  23
TORSDOF 3
ENDMDL
MODEL 9
REMARK VINA RESULT:      -7.0      6.993     10.204
REMARK  3 active torsions:
REMARK  status: ('A' for Active; 'I' for Inactive)
REMARK    1  A    between atoms: C_4  and  C_7 
REMARK    2  A    between atoms: C_7  and  O_8 
REMARK    3  A    between atoms: O_8  and  C_9 
ROOT
ATOM      1  C   LIG d   1       8.927   2.086  -4.159  0.00  0.00     0.124 A 
ATOM      2  C   LIG d   1       8.689   2.742  -5.363  0.00  0.00    -0.019 A 
ATOM      3  C   LIG d   1       8.958   4.086  -5.481  0.00  0.00    -0.047 A 
ATOM      4  C   LIG d   1       9.472   4.791  -4.393  0.00  0.00     0.025 A 
ATOM      5  C   LIG d   1       9.766   6.233  -4.500  0.00  0.00    -0.000 A 
ATOM      6  C   LIG d   1       9.550   6.943  -5.674  0.00  0.00    -0.053 A 
ATOM      7  C   LIG d   1       9.844   8.291  -5.719  0.00  0.00    -0.061 A 
ATOM      8  C   LIG d   1      10.352   8.941  -4.604  0.00  0.00    -0.061 A 
ATOM      9  C   LIG d   1      10.574   8.252  -3.429  0.00  0.00    -0.047 A 
ATOM     10  C   LIG d   1      10.283   6.892  -3.364  0.00  0.00     0.067 A 
ATOM     11  C   LIG d   1      10.501   6.110  -2.139  0.00  0.00     0.345 A 
ATOM     12  O   LIG d   1      10.945   6.653  -1.145  0.00  0.00    -0.244 OA
ATOM     13  O   LIG d   1      10.210   4.799  -2.111  0.00  0.00    -0.422 OA
ATOM     14  C   LIG d   1       9.714   4.134  -3.178  0.00  0.00     0.143 A 
ATOM     15  C   LIG d   1       9.437   2.777  -3.073  0.00  0.00     0.023 A 
ATOM     16  H   LIG d   1       8.292   2.194  -6.206  0.00  0.00     0.065 H 
ATOM     17  H   LIG d   1       8.774   4.595  -6.416  0.00  0.00     0.063 H 
ATOM     18  H   LIG d   1       9.159   6.443  -6.548  0.00  0.00     0.062 H 
ATOM     19  H   LIG d   1       9.677   8.846  -6.631  0.00  0.00     0.062 H 
ATOM     20  H   LIG d   1      10.578   9.996  -4.656  0.00  0.00     0.062 H 
ATOM     21  H   LIG d   1      10.970   8.766  -2.566  0.00  0.00     0.063 H 
ATOM     22  H   LIG d   1       9.618   2.260  -2.143  0.00  0.00     0.069 H 
ENDROOT
BRANCH   1  23
ATOM     23  O   LIG d   1       8.659   0.759  -4.049  0.00  0.00    -0.487 OA
BRANCH  23  24
ATOM     24  C   LIG d   1       7.474   0.281  -4.688  0.00  0.00     0.115 C 
ATOM     25  H   LIG d   1       7.129   1.019  -5.413  0.00  0.00     0.075 H 
ATOM     26  H   LIG d   1       7.690  -0.657  -5.200  0.00  0.00     0.075 H 
BRANCH  24  27
ATOM     27  C   LIG d   1       6.402   0.054  -3.654  0.00  0.00    -0.010 A 
ATOM     28  C   LIG d   1       5.811   1.132  -3.023  0.00  0.00    -0.055 A 
ATOM     29  C   LIG d   1       4.827   0.924  -2.074  0.00  0.00    -0.061 A 
ATOM     30  H   LIG d   1       6.118   2.138  -3.270  0.00  0.00     0.062 H 
ATOM     31  C   LIG d   1       4.434  -0.363  -1.757  0.00  0.00    -0.062 A 
ATOM     32  H   LIG d   1       4.365   1.766  -1.581  0.00  0.00     0.062 H 
ATOM     33  C   LIG d   1       5.025  -1.441  -2.389  0.00  0.00    -0.061 A 
ATOM     34  H   LIG d   1       3.666  -0.526  -1.016  0.00  0.00     0.062 H 
ATOM     35  C   LIG d   1       6.005  -1.233  -3.341  0.00  0.00    -0.055 A 
ATOM     36  H   LIG d   1       4.718  -2.447  -2.141  0.00  0.00     0.062 H 
ATOM     37  H   LIG d   1       6.464  -2.075  -3.838  0.00  0.00     0.062 H 
ENDBRANCH  24  27
ENDBRANCH  23  24
ENDBRANCH   1  23
TORSDOF 3
ENDMDL
MODEL 10
REMARK VINA RESULT:      -6.9      1.827      8.373
REMARK  3 active torsions:
REMARK  status: ('A' for Active; 'I' for Inactive)
REMARK    1  A    between atoms: C_4  and  C_7 
REMARK    2  A    between atoms: C_7  and  O_8 
REMARK    3  A    between atoms: O_8  and  C_9 
ROOT
ATOM      1  C   LIG d   1       3.174  -0.663  -8.588  0.00  0.00     0.124 A 
ATOM      2  C   LIG d   1       2.538   0.368  -7.902  0.00  0.00    -0.019 A 
ATOM      3  C   LIG d   1       2.774   0.551  -6.559  0.00  0.00    -0.047 A 
ATOM      4  C   LIG d   1       3.650  -0.299  -5.884  0.00  0.00     0.025 A 
ATOM      5  C   LIG d   1       3.915  -0.119  -4.444  0.00  0.00    -0.000 A 
ATOM      6  C   LIG d   1       3.312   0.891  -3.705  0.00  0.00    -0.053 A 
ATOM      7  C   LIG d   1       3.597   1.013  -2.360  0.00  0.00    -0.061 A 
ATOM      8  C   LIG d   1       4.477   0.138  -1.741  0.00  0.00    -0.061 A 
ATOM      9  C   LIG d   1       5.085  -0.872  -2.458  0.00  0.00    -0.047 A 
ATOM     10  C   LIG d   1       4.811  -1.012  -3.817  0.00  0.00     0.067 A 
ATOM     11  C   LIG d   1       5.431  -2.068  -4.628  0.00  0.00     0.345 A 
ATOM     12  O   LIG d   1       6.207  -2.850  -4.113  0.00  0.00    -0.244 OA
ATOM     13  O   LIG d   1       5.145  -2.174  -5.936  0.00  0.00    -0.422 OA
ATOM     14  C   LIG d   1       4.293  -1.340  -6.572  0.00  0.00     0.143 A 
ATOM     15  C   LIG d   1       4.046  -1.512  -7.927  0.00  0.00     0.023 A 
ATOM     16  H   LIG d   1       1.861   1.027  -8.426  0.00  0.00     0.065 H 
ATOM     17  H   LIG d   1       2.282   1.351  -6.027  0.00  0.00     0.063 H 
ATOM     18  H   LIG d   1       2.630   1.579  -4.180  0.00  0.00     0.062 H 
ATOM     19  H   LIG d   1       3.129   1.798  -1.783  0.00  0.00     0.062 H 
ATOM     20  H   LIG d   1       4.689   0.247  -0.688  0.00  0.00     0.062 H 
ATOM     21  H   LIG d   1       5.769  -1.549  -1.969  0.00  0.00     0.063 H 
ATOM     22  H   LIG d   1       4.533  -2.309  -8.467  0.00  0.00     0.069 H 
ENDROOT
BRANCH   1  23
ATOM     23  O   LIG d   1       2.937  -0.838  -9.914  0.00  0.00    -0.487 OA
BRANCH  23  24
ATOM     24  C   LIG d   1       3.952  -0.396 -10.817  0.00  0.00     0.115 C 
ATOM     25  H   LIG d   1       4.016   0.692 -10.789  0.00  0.00     0.075 H 
ATOM     26  H   LIG d   1       4.911  -0.823 -10.524  0.00  0.00     0.075 H 
BRANCH  24  27
ATOM     27  C   LIG d   1       3.610  -0.842 -12.215  0.00  0.00    -0.010 A 
ATOM     28  C   LIG d   1       4.422  -0.484 -13.273  0.00  0.00    -0.055 A 
ATOM     29  C   LIG d   1       4.108  -0.895 -14.557  0.00  0.00    -0.061 A 
ATOM     30  H   LIG d   1       5.303   0.117 -13.100  0.00  0.00     0.062 H 
ATOM     31  C   LIG d   1       2.982  -1.663 -14.780  0.00  0.00    -0.062 A 
ATOM     32  H   LIG d   1       4.743  -0.615 -15.383  0.00  0.00     0.062 H 
ATOM     33  C   LIG d   1       2.169  -2.022 -13.720  0.00  0.00    -0.061 A 
ATOM     34  H   LIG d   1       2.736  -1.983 -15.781  0.00  0.00     0.062 H 
ATOM     35  C   LIG d   1       2.485  -1.616 -12.437  0.00  0.00    -0.055 A 
ATOM     36  H   LIG d   1       1.288  -2.622 -13.895  0.00  0.00     0.062 H 
ATOM     37  H   LIG d   1       1.853  -1.900 -11.609  0.00  0.00     0.062 H 
ENDBRANCH  24  27
ENDBRANCH  23  24
ENDBRANCH   1  23
TORSDOF 3
ENDMDL
