MODEL 1
REMARK VINA RESULT:      -6.2      0.000      0.000
REMARK  9 active torsions:
REMARK  status: ('A' for Active; 'I' for Inactive)
REMARK    1  A    between atoms: C_1  and  C_2 
REMARK    2  A    between atoms: C_2  and  C_3 
REMARK    3  A    between atoms: C_3  and  C_4 
REMARK    4  A    between atoms: C_4  and  S_5 
REMARK    5  A    between atoms: S_5  and  C_6 
REMARK    6  A    between atoms: C_6  and  C_7 
REMARK    7  A    between atoms: C_7  and  C_9 
REMARK    8  A    between atoms: C_7  and  O_25 
REMARK    9  A    between atoms: C_9  and  N_51 
ROOT
ATOM      1  C   LIG d   1       3.533   1.237  -3.410  0.00  0.00    -0.027 C 
ATOM      2  C   LIG d   1       4.623   1.144  -2.351  0.00  0.00     0.018 C 
ATOM      3  H   LIG d   1       4.543   2.012  -1.697  0.00  0.00     0.037 H 
ATOM      4  C   LIG d   1       4.465  -0.118  -1.499  0.00  0.00    -0.031 C 
ATOM      5  C   LIG d   1       4.455  -1.320  -2.450  0.00  0.00     0.040 C 
ATOM      6  H   LIG d   1       4.389  -2.251  -1.889  0.00  0.00     0.042 H 
ATOM      7  C   LIG d   1       3.248  -1.169  -3.393  0.00  0.00    -0.023 C 
ATOM      8  C   LIG d   1       5.701  -1.303  -3.306  0.00  0.00     0.030 A 
ATOM      9  C   LIG d   1       6.161  -2.475  -3.784  0.00  0.00    -0.042 A 
ATOM     10  C   LIG d   1       7.272  -2.517  -4.632  0.00  0.00    -0.055 A 
ATOM     11  C   LIG d   1       7.876  -1.346  -4.986  0.00  0.00     0.003 A 
ATOM     12  C   LIG d   1       7.381  -0.140  -4.472  0.00  0.00     0.252 A 
ATOM     13  O   LIG d   1       7.884   0.915  -4.820  0.00  0.00    -0.268 OA
ATOM     14  N   LIG d   1       6.347  -0.134  -3.593  0.00  0.00    -0.311 N 
ATOM     15  C   LIG d   1       6.003   1.152  -2.988  0.00  0.00     0.034 C 
ATOM     16  H   LIG d   1       3.721   2.093  -4.058  0.00  0.00     0.082 H 
ATOM     17  H   LIG d   1       2.577   1.376  -2.904  0.00  0.00     0.082 H 
ATOM     18  H   LIG d   1       3.526  -0.076  -0.946  0.00  0.00     0.028 H 
ATOM     19  H   LIG d   1       5.300  -0.203  -0.804  0.00  0.00     0.028 H 
ATOM     20  H   LIG d   1       2.337  -1.044  -2.807  0.00  0.00     0.082 H 
ATOM     21  H   LIG d   1       3.161  -2.053  -4.024  0.00  0.00     0.082 H 
ATOM     22  H   LIG d   1       5.662  -3.392  -3.509  0.00  0.00     0.064 H 
ATOM     23  H   LIG d   1       7.647  -3.462  -5.001  0.00  0.00     0.062 H 
ATOM     24  H   LIG d   1       8.725  -1.348  -5.654  0.00  0.00     0.067 H 
ATOM     25  H   LIG d   1       6.032   1.924  -3.757  0.00  0.00     0.050 H 
ATOM     26  H   LIG d   1       6.743   1.390  -2.223  0.00  0.00     0.050 H 
ATOM     27  N   LIG d   1       3.497   0.017  -4.242  0.00  0.00     0.238 N 
ATOM     28  H   LIG d   1       4.403  -0.092  -4.711  0.00  0.00     0.203 HD
ENDROOT
BRANCH  27  29
ATOM     29  C   LIG d   1       2.438   0.136  -5.265  0.00  0.00    -0.004 C 
ATOM     30  H   LIG d   1       1.842   1.025  -5.060  0.00  0.00     0.084 H 
ATOM     31  H   LIG d   1       1.794  -0.743  -5.254  0.00  0.00     0.084 H 
BRANCH  29  32
ATOM     32  C   LIG d   1       3.094   0.270  -6.641  0.00  0.00     0.104 C 
ATOM     33  H   LIG d   1       3.244   1.324  -6.872  0.00  0.00     0.066 H 
BRANCH  32  34
ATOM     34  C   LIG d   1       4.446  -0.447  -6.633  0.00  0.00     0.025 C 
ATOM     35  H   LIG d   1       4.396  -1.311  -5.970  0.00  0.00     0.040 H 
ATOM     36  H   LIG d   1       5.218   0.237  -6.280  0.00  0.00     0.040 H 
BRANCH  34  37
ATOM     37  S   LIG d   1       4.849  -0.997  -8.314  0.00  0.00    -0.158 SA
BRANCH  37  38
ATOM     38  C   LIG d   1       5.550   0.479  -9.102  0.00  0.00    -0.006 C 
ATOM     39  H   LIG d   1       6.622   0.342  -9.241  0.00  0.00     0.038 H 
ATOM     40  H   LIG d   1       5.373   1.347  -8.469  0.00  0.00     0.038 H 
BRANCH  38  41
ATOM     41  C   LIG d   1       4.883   0.695 -10.463  0.00  0.00    -0.044 C 
ATOM     42  H   LIG d   1       4.544  -0.262 -10.857  0.00  0.00     0.027 H 
ATOM     43  H   LIG d   1       5.600   1.139 -11.152  0.00  0.00     0.027 H 
BRANCH  41  44
ATOM     44  C   LIG d   1       3.684   1.632 -10.301  0.00  0.00    -0.055 C 
ATOM     45  H   LIG d   1       2.823   1.063  -9.952  0.00  0.00     0.026 H 
ATOM     46  H   LIG d   1       3.451   2.092 -11.261  0.00  0.00     0.026 H 
BRANCH  44  47
ATOM     47  C   LIG d   1       4.022   2.721  -9.281  0.00  0.00    -0.065 C 
ATOM     48  H   LIG d   1       4.643   2.298  -8.490  0.00  0.00     0.023 H 
ATOM     49  H   LIG d   1       4.564   3.528  -9.776  0.00  0.00     0.023 H 
ATOM     50  H   LIG d   1       3.102   3.113  -8.850  0.00  0.00     0.023 H 
ENDBRANCH  44  47
ENDBRANCH  41  44
ENDBRANCH  38  41
ENDBRANCH  37  38
ENDBRANCH  34  37
ENDBRANCH  32  34
BRANCH  32  51
ATOM     51  O   LIG d   1       2.249  -0.320  -7.631  0.00  0.00    -0.386 OA
ATOM     52  H   LIG d   1       2.689  -0.984  -8.179  0.00  0.00     0.210 HD
ENDBRANCH  32  51
ENDBRANCH  29  32
ENDBRANCH  27  29
TORSDOF 9
ENDMDL
MODEL 2
REMARK VINA RESULT:      -6.1      1.387      1.794
REMARK  9 active torsions:
REMARK  status: ('A' for Active; 'I' for Inactive)
REMARK    1  A    between atoms: C_1  and  C_2 
REMARK    2  A    between atoms: C_2  and  C_3 
REMARK    3  A    between atoms: C_3  and  C_4 
REMARK    4  A    between atoms: C_4  and  S_5 
REMARK    5  A    between atoms: S_5  and  C_6 
REMARK    6  A    between atoms: C_6  and  C_7 
REMARK    7  A    between atoms: C_7  and  C_9 
REMARK    8  A    between atoms: C_7  and  O_25 
REMARK    9  A    between atoms: C_9  and  N_51 
ROOT
ATOM      1  C   LIG d   1       3.210   0.637  -3.335  0.00  0.00    -0.027 C 
ATOM      2  C   LIG d   1       4.123   0.413  -2.137  0.00  0.00     0.018 C 
ATOM      3  H   LIG d   1       3.666   0.878  -1.264  0.00  0.00     0.037 H 
ATOM      4  C   LIG d   1       4.305  -1.080  -1.847  0.00  0.00    -0.031 C 
ATOM      5  C   LIG d   1       4.831  -1.738  -3.128  0.00  0.00     0.040 C 
ATOM      6  H   LIG d   1       5.021  -2.798  -2.963  0.00  0.00     0.042 H 
ATOM      7  C   LIG d   1       3.775  -1.543  -4.230  0.00  0.00    -0.023 C 
ATOM      8  C   LIG d   1       6.092  -1.037  -3.580  0.00  0.00     0.030 A 
ATOM      9  C   LIG d   1       6.984  -1.738  -4.306  0.00  0.00    -0.042 A 
ATOM     10  C   LIG d   1       8.139  -1.128  -4.806  0.00  0.00    -0.055 A 
ATOM     11  C   LIG d   1       8.340   0.200  -4.565  0.00  0.00     0.003 A 
ATOM     12  C   LIG d   1       7.398   0.906  -3.805  0.00  0.00     0.252 A 
ATOM     13  O   LIG d   1       7.544   2.103  -3.624  0.00  0.00    -0.268 OA
ATOM     14  N   LIG d   1       6.324   0.273  -3.270  0.00  0.00    -0.311 N 
ATOM     15  C   LIG d   1       5.483   1.052  -2.361  0.00  0.00     0.034 C 
ATOM     16  H   LIG d   1       3.171   1.700  -3.573  0.00  0.00     0.082 H 
ATOM     17  H   LIG d   1       2.210   0.293  -3.070  0.00  0.00     0.082 H 
ATOM     18  H   LIG d   1       3.348  -1.522  -1.570  0.00  0.00     0.028 H 
ATOM     19  H   LIG d   1       5.024  -1.216  -1.039  0.00  0.00     0.028 H 
ATOM     20  H   LIG d   1       2.811  -1.919  -3.887  0.00  0.00     0.082 H 
ATOM     21  H   LIG d   1       4.079  -2.076  -5.130  0.00  0.00     0.082 H 
ATOM     22  H   LIG d   1       6.803  -2.784  -4.502  0.00  0.00     0.064 H 
ATOM     23  H   LIG d   1       8.860  -1.699  -5.373  0.00  0.00     0.062 H 
ATOM     24  H   LIG d   1       9.214   0.700  -4.954  0.00  0.00     0.067 H 
ATOM     25  H   LIG d   1       5.341   2.048  -2.779  0.00  0.00     0.050 H 
ATOM     26  H   LIG d   1       5.993   1.143  -1.402  0.00  0.00     0.050 H 
ATOM     27  N   LIG d   1       3.703  -0.093  -4.520  0.00  0.00     0.238 N 
ATOM     28  H   LIG d   1       4.643   0.247  -4.754  0.00  0.00     0.203 HD
ENDROOT
BRANCH  27  29
ATOM     29  C   LIG d   1       2.806   0.147  -5.669  0.00  0.00    -0.004 C 
ATOM     30  H   LIG d   1       2.546   1.205  -5.703  0.00  0.00     0.084 H 
ATOM     31  H   LIG d   1       1.897  -0.447  -5.577  0.00  0.00     0.084 H 
BRANCH  29  32
ATOM     32  C   LIG d   1       3.539  -0.239  -6.956  0.00  0.00     0.104 C 
ATOM     33  H   LIG d   1       3.665  -1.321  -6.992  0.00  0.00     0.066 H 
BRANCH  32  34
ATOM     34  C   LIG d   1       2.723   0.220  -8.166  0.00  0.00     0.025 C 
ATOM     35  H   LIG d   1       1.660   0.113  -7.950  0.00  0.00     0.040 H 
ATOM     36  H   LIG d   1       2.981  -0.393  -9.031  0.00  0.00     0.040 H 
BRANCH  34  37
ATOM     37  S   LIG d   1       3.096   1.958  -8.524  0.00  0.00    -0.158 SA
BRANCH  37  38
ATOM     38  C   LIG d   1       3.587   1.951 -10.269  0.00  0.00    -0.006 C 
ATOM     39  H   LIG d   1       4.066   2.899 -10.516  0.00  0.00     0.038 H 
ATOM     40  H   LIG d   1       2.706   1.815 -10.894  0.00  0.00     0.038 H 
BRANCH  38  41
ATOM     41  C   LIG d   1       4.571   0.805 -10.517  0.00  0.00    -0.044 C 
ATOM     42  H   LIG d   1       4.484   0.073  -9.715  0.00  0.00     0.027 H 
ATOM     43  H   LIG d   1       5.587   1.197 -10.543  0.00  0.00     0.027 H 
BRANCH  41  44
ATOM     44  C   LIG d   1       4.248   0.136 -11.855  0.00  0.00    -0.055 C 
ATOM     45  H   LIG d   1       5.044  -0.563 -12.113  0.00  0.00     0.026 H 
ATOM     46  H   LIG d   1       4.168   0.897 -12.632  0.00  0.00     0.026 H 
BRANCH  44  47
ATOM     47  C   LIG d   1       2.923  -0.619 -11.742  0.00  0.00    -0.065 C 
ATOM     48  H   LIG d   1       2.703  -0.812 -10.691  0.00  0.00     0.023 H 
ATOM     49  H   LIG d   1       2.123  -0.017 -12.175  0.00  0.00     0.023 H 
ATOM     50  H   LIG d   1       2.996  -1.565 -12.277  0.00  0.00     0.023 H 
ENDBRANCH  44  47
ENDBRANCH  41  44
ENDBRANCH  38  41
ENDBRANCH  37  38
ENDBRANCH  34  37
ENDBRANCH  32  34
BRANCH  32  51
ATOM     51  O   LIG d   1       4.822   0.391  -6.980  0.00  0.00    -0.386 OA
ATOM     52  H   LIG d   1       5.313   0.316  -6.151  0.00  0.00     0.210 HD
ENDBRANCH  32  51
ENDBRANCH  29  32
ENDBRANCH  27  29
TORSDOF 9
ENDMDL
MODEL 3
REMARK VINA RESULT:      -6.0      1.732      4.002
REMARK  9 active torsions:
REMARK  status: ('A' for Active; 'I' for Inactive)
REMARK    1  A    between atoms: C_1  and  C_2 
REMARK    2  A    between atoms: C_2  and  C_3 
REMARK    3  A    between atoms: C_3  and  C_4 
REMARK    4  A    between atoms: C_4  and  S_5 
REMARK    5  A    between atoms: S_5  and  C_6 
REMARK    6  A    between atoms: C_6  and  C_7 
REMARK    7  A    between atoms: C_7  and  C_9 
REMARK    8  A    between atoms: C_7  and  O_25 
REMARK    9  A    between atoms: C_9  and  N_51 
ROOT
ATOM      1  C   LIG d   1       5.996  -1.562  -6.211  0.00  0.00    -0.027 C 
ATOM      2  C   LIG d   1       4.663  -2.104  -5.712  0.00  0.00     0.018 C 
ATOM      3  H   LIG d   1       4.221  -2.712  -6.501  0.00  0.00     0.037 H 
ATOM      4  C   LIG d   1       4.849  -2.983  -4.472  0.00  0.00    -0.031 C 
ATOM      5  C   LIG d   1       5.584  -2.147  -3.418  0.00  0.00     0.040 C 
ATOM      6  H   LIG d   1       5.703  -2.714  -2.496  0.00  0.00     0.042 H 
ATOM      7  C   LIG d   1       6.956  -1.757  -3.994  0.00  0.00    -0.023 C 
ATOM      8  C   LIG d   1       4.821  -0.867  -3.161  0.00  0.00     0.030 A 
ATOM      9  C   LIG d   1       4.955  -0.278  -1.957  0.00  0.00    -0.042 A 
ATOM     10  C   LIG d   1       4.325   0.939  -1.680  0.00  0.00    -0.055 A 
ATOM     11  C   LIG d   1       3.585   1.536  -2.659  0.00  0.00     0.003 A 
ATOM     12  C   LIG d   1       3.459   0.901  -3.902  0.00  0.00     0.252 A 
ATOM     13  O   LIG d   1       2.839   1.448  -4.799  0.00  0.00    -0.268 OA
ATOM     14  N   LIG d   1       4.020  -0.316  -4.119  0.00  0.00    -0.311 N 
ATOM     15  C   LIG d   1       3.702  -0.972  -5.387  0.00  0.00     0.034 C 
ATOM     16  H   LIG d   1       5.826  -0.870  -7.035  0.00  0.00     0.082 H 
ATOM     17  H   LIG d   1       6.593  -2.401  -6.567  0.00  0.00     0.082 H 
ATOM     18  H   LIG d   1       5.442  -3.862  -4.728  0.00  0.00     0.028 H 
ATOM     19  H   LIG d   1       3.877  -3.292  -4.088  0.00  0.00     0.028 H 
ATOM     20  H   LIG d   1       7.488  -2.652  -4.318  0.00  0.00     0.082 H 
ATOM     21  H   LIG d   1       7.539  -1.236  -3.236  0.00  0.00     0.082 H 
ATOM     22  H   LIG d   1       5.558  -0.754  -1.198  0.00  0.00     0.064 H 
ATOM     23  H   LIG d   1       4.422   1.400  -0.707  0.00  0.00     0.062 H 
ATOM     24  H   LIG d   1       3.103   2.485  -2.479  0.00  0.00     0.067 H 
ATOM     25  H   LIG d   1       3.743  -0.234  -6.187  0.00  0.00     0.050 H 
ATOM     26  H   LIG d   1       2.690  -1.373  -5.331  0.00  0.00     0.050 H 
ATOM     27  N   LIG d   1       6.713  -0.847  -5.136  0.00  0.00     0.238 N 
ATOM     28  H   LIG d   1       6.136  -0.059  -4.818  0.00  0.00     0.203 HD
ENDROOT
BRANCH  27  29
ATOM     29  C   LIG d   1       7.997  -0.324  -5.647  0.00  0.00    -0.004 C 
ATOM     30  H   LIG d   1       7.994  -0.377  -6.735  0.00  0.00     0.084 H 
ATOM     31  H   LIG d   1       8.830  -0.908  -5.258  0.00  0.00     0.084 H 
BRANCH  29  32
ATOM     32  C   LIG d   1       8.146   1.134  -5.207  0.00  0.00     0.104 C 
ATOM     33  H   LIG d   1       8.966   1.216  -4.495  0.00  0.00     0.066 H 
BRANCH  32  34
ATOM     34  C   LIG d   1       8.440   2.008  -6.428  0.00  0.00     0.025 C 
ATOM     35  H   LIG d   1       9.499   2.267  -6.443  0.00  0.00     0.040 H 
ATOM     36  H   LIG d   1       7.845   2.920  -6.373  0.00  0.00     0.040 H 
BRANCH  34  37
ATOM     37  S   LIG d   1       8.017   1.099  -7.940  0.00  0.00    -0.158 SA
BRANCH  37  38
ATOM     38  C   LIG d   1       6.812   2.168  -8.771  0.00  0.00    -0.006 C 
ATOM     39  H   LIG d   1       7.193   2.452  -9.752  0.00  0.00     0.038 H 
ATOM     40  H   LIG d   1       6.646   3.063  -8.173  0.00  0.00     0.038 H 
BRANCH  38  41
ATOM     41  C   LIG d   1       5.491   1.414  -8.938  0.00  0.00    -0.044 C 
ATOM     42  H   LIG d   1       5.217   0.947  -7.992  0.00  0.00     0.027 H 
ATOM     43  H   LIG d   1       5.605   0.646  -9.702  0.00  0.00     0.027 H 
BRANCH  41  44
ATOM     44  C   LIG d   1       4.393   2.393  -9.359  0.00  0.00    -0.055 C 
ATOM     45  H   LIG d   1       4.200   2.284 -10.426  0.00  0.00     0.026 H 
ATOM     46  H   LIG d   1       4.717   3.413  -9.152  0.00  0.00     0.026 H 
BRANCH  44  47
ATOM     47  C   LIG d   1       3.114   2.094  -8.576  0.00  0.00    -0.065 C 
ATOM     48  H   LIG d   1       2.623   3.031  -8.310  0.00  0.00     0.023 H 
ATOM     49  H   LIG d   1       2.442   1.494  -9.191  0.00  0.00     0.023 H 
ATOM     50  H   LIG d   1       3.364   1.545  -7.669  0.00  0.00     0.023 H 
ENDBRANCH  44  47
ENDBRANCH  41  44
ENDBRANCH  38  41
ENDBRANCH  37  38
ENDBRANCH  34  37
ENDBRANCH  32  34
BRANCH  32  51
ATOM     51  O   LIG d   1       6.933   1.571  -4.591  0.00  0.00    -0.386 OA
ATOM     52  H   LIG d   1       6.146   1.097  -4.891  0.00  0.00     0.210 HD
ENDBRANCH  32  51
ENDBRANCH  29  32
ENDBRANCH  27  29
TORSDOF 9
ENDMDL
MODEL 4
REMARK VINA RESULT:      -6.0      1.555      4.011
REMARK  9 active torsions:
REMARK  status: ('A' for Active; 'I' for Inactive)
REMARK    1  A    between atoms: C_1  and  C_2 
REMARK    2  A    between atoms: C_2  and  C_3 
REMARK    3  A    between atoms: C_3  and  C_4 
REMARK    4  A    between atoms: C_4  and  S_5 
REMARK    5  A    between atoms: S_5  and  C_6 
REMARK    6  A    between atoms: C_6  and  C_7 
REMARK    7  A    between atoms: C_7  and  C_9 
REMARK    8  A    between atoms: C_7  and  O_25 
REMARK    9  A    between atoms: C_9  and  N_51 
ROOT
ATOM      1  C   LIG d   1       6.644  -0.848  -3.145  0.00  0.00    -0.027 C 
ATOM      2  C   LIG d   1       5.547  -1.903  -3.176  0.00  0.00     0.018 C 
ATOM      3  H   LIG d   1       5.925  -2.807  -2.699  0.00  0.00     0.037 H 
ATOM      4  C   LIG d   1       4.305  -1.438  -2.410  0.00  0.00    -0.031 C 
ATOM      5  C   LIG d   1       3.863  -0.101  -3.015  0.00  0.00     0.040 C 
ATOM      6  H   LIG d   1       2.953   0.255  -2.534  0.00  0.00     0.042 H 
ATOM      7  C   LIG d   1       5.008   0.909  -2.823  0.00  0.00    -0.023 C 
ATOM      8  C   LIG d   1       3.648  -0.262  -4.503  0.00  0.00     0.030 A 
ATOM      9  C   LIG d   1       2.777   0.565  -5.113  0.00  0.00    -0.042 A 
ATOM     10  C   LIG d   1       2.582   0.506  -6.497  0.00  0.00    -0.055 A 
ATOM     11  C   LIG d   1       3.306  -0.391  -7.227  0.00  0.00     0.003 A 
ATOM     12  C   LIG d   1       4.203  -1.242  -6.568  0.00  0.00     0.252 A 
ATOM     13  O   LIG d   1       4.889  -2.014  -7.217  0.00  0.00    -0.268 OA
ATOM     14  N   LIG d   1       4.319  -1.214  -5.216  0.00  0.00    -0.311 N 
ATOM     15  C   LIG d   1       5.158  -2.244  -4.605  0.00  0.00     0.034 C 
ATOM     16  H   LIG d   1       7.478  -1.167  -3.771  0.00  0.00     0.082 H 
ATOM     17  H   LIG d   1       6.990  -0.746  -2.116  0.00  0.00     0.082 H 
ATOM     18  H   LIG d   1       4.550  -1.304  -1.356  0.00  0.00     0.028 H 
ATOM     19  H   LIG d   1       3.508  -2.173  -2.514  0.00  0.00     0.028 H 
ATOM     20  H   LIG d   1       5.285   0.956  -1.769  0.00  0.00     0.082 H 
ATOM     21  H   LIG d   1       4.691   1.894  -3.164  0.00  0.00     0.082 H 
ATOM     22  H   LIG d   1       2.224   1.281  -4.524  0.00  0.00     0.064 H 
ATOM     23  H   LIG d   1       1.870   1.160  -6.980  0.00  0.00     0.062 H 
ATOM     24  H   LIG d   1       3.188  -0.445  -8.299  0.00  0.00     0.067 H 
ATOM     25  H   LIG d   1       6.064  -2.360  -5.199  0.00  0.00     0.050 H 
ATOM     26  H   LIG d   1       4.613  -3.189  -4.607  0.00  0.00     0.050 H 
ATOM     27  N   LIG d   1       6.147   0.448  -3.648  0.00  0.00     0.238 N 
ATOM     28  H   LIG d   1       5.831   0.330  -4.617  0.00  0.00     0.203 HD
ENDROOT
BRANCH  27  29
ATOM     29  C   LIG d   1       7.232   1.451  -3.615  0.00  0.00    -0.004 C 
ATOM     30  H   LIG d   1       7.622   1.521  -2.601  0.00  0.00     0.084 H 
ATOM     31  H   LIG d   1       6.861   2.426  -3.930  0.00  0.00     0.084 H 
BRANCH  29  32
ATOM     32  C   LIG d   1       8.348   1.000  -4.561  0.00  0.00     0.104 C 
ATOM     33  H   LIG d   1       8.258  -0.070  -4.745  0.00  0.00     0.066 H 
BRANCH  32  34
ATOM     34  C   LIG d   1       8.232   1.758  -5.885  0.00  0.00     0.025 C 
ATOM     35  H   LIG d   1       9.228   2.026  -6.238  0.00  0.00     0.040 H 
ATOM     36  H   LIG d   1       7.644   2.664  -5.734  0.00  0.00     0.040 H 
BRANCH  34  37
ATOM     37  S   LIG d   1       7.416   0.705  -7.115  0.00  0.00    -0.158 SA
BRANCH  37  38
ATOM     38  C   LIG d   1       7.126   1.815  -8.519  0.00  0.00    -0.006 C 
ATOM     39  H   LIG d   1       7.986   1.788  -9.188  0.00  0.00     0.038 H 
ATOM     40  H   LIG d   1       6.980   2.831  -8.155  0.00  0.00     0.038 H 
BRANCH  38  41
ATOM     41  C   LIG d   1       5.877   1.361  -9.278  0.00  0.00    -0.044 C 
ATOM     42  H   LIG d   1       5.508   0.431  -8.847  0.00  0.00     0.027 H 
ATOM     43  H   LIG d   1       6.127   1.202 -10.327  0.00  0.00     0.027 H 
BRANCH  41  44
ATOM     44  C   LIG d   1       4.794   2.438  -9.171  0.00  0.00    -0.055 C 
ATOM     45  H   LIG d   1       5.212   3.402  -9.460  0.00  0.00     0.026 H 
ATOM     46  H   LIG d   1       4.437   2.491  -8.142  0.00  0.00     0.026 H 
BRANCH  44  47
ATOM     47  C   LIG d   1       3.631   2.087 -10.099  0.00  0.00    -0.065 C 
ATOM     48  H   LIG d   1       3.791   1.095 -10.523  0.00  0.00     0.023 H 
ATOM     49  H   LIG d   1       2.699   2.092  -9.532  0.00  0.00     0.023 H 
ATOM     50  H   LIG d   1       3.572   2.821 -10.902  0.00  0.00     0.023 H 
ENDBRANCH  44  47
ENDBRANCH  41  44
ENDBRANCH  38  41
ENDBRANCH  37  38
ENDBRANCH  34  37
ENDBRANCH  32  34
BRANCH  32  51
ATOM     51  O   LIG d   1       9.617   1.276  -3.964  0.00  0.00    -0.386 OA
ATOM     52  H   LIG d   1      10.095   2.008  -4.378  0.00  0.00     0.210 HD
ENDBRANCH  32  51
ENDBRANCH  29  32
ENDBRANCH  27  29
TORSDOF 9
ENDMDL
MODEL 5
REMARK VINA RESULT:      -5.9      1.758      3.610
REMARK  9 active torsions:
REMARK  status: ('A' for Active; 'I' for Inactive)
REMARK    1  A    between atoms: C_1  and  C_2 
REMARK    2  A    between atoms: C_2  and  C_3 
REMARK    3  A    between atoms: C_3  and  C_4 
REMARK    4  A    between atoms: C_4  and  S_5 
REMARK    5  A    between atoms: S_5  and  C_6 
REMARK    6  A    between atoms: C_6  and  C_7 
REMARK    7  A    between atoms: C_7  and  C_9 
REMARK    8  A    between atoms: C_7  and  O_25 
REMARK    9  A    between atoms: C_9  and  N_51 
ROOT
ATOM      1  C   LIG d   1       5.978  -2.626  -5.799  0.00  0.00    -0.027 C 
ATOM      2  C   LIG d   1       6.214  -2.971  -4.335  0.00  0.00     0.018 C 
ATOM      3  H   LIG d   1       6.410  -4.040  -4.260  0.00  0.00     0.037 H 
ATOM      4  C   LIG d   1       7.425  -2.219  -3.774  0.00  0.00    -0.031 C 
ATOM      5  C   LIG d   1       7.185  -0.722  -4.003  0.00  0.00     0.040 C 
ATOM      6  H   LIG d   1       8.000  -0.136  -3.580  0.00  0.00     0.042 H 
ATOM      7  C   LIG d   1       7.077  -0.485  -5.518  0.00  0.00    -0.023 C 
ATOM      8  C   LIG d   1       5.865  -0.318  -3.386  0.00  0.00     0.030 A 
ATOM      9  C   LIG d   1       5.713   0.961  -2.990  0.00  0.00    -0.042 A 
ATOM     10  C   LIG d   1       4.495   1.410  -2.470  0.00  0.00    -0.055 A 
ATOM     11  C   LIG d   1       3.451   0.536  -2.388  0.00  0.00     0.003 A 
ATOM     12  C   LIG d   1       3.636  -0.789  -2.804  0.00  0.00     0.252 A 
ATOM     13  O   LIG d   1       2.695  -1.566  -2.779  0.00  0.00    -0.268 OA
ATOM     14  N   LIG d   1       4.849  -1.217  -3.235  0.00  0.00    -0.311 N 
ATOM     15  C   LIG d   1       4.989  -2.650  -3.495  0.00  0.00     0.034 C 
ATOM     16  H   LIG d   1       5.061  -3.103  -6.146  0.00  0.00     0.082 H 
ATOM     17  H   LIG d   1       6.819  -3.006  -6.379  0.00  0.00     0.082 H 
ATOM     18  H   LIG d   1       8.329  -2.533  -4.296  0.00  0.00     0.028 H 
ATOM     19  H   LIG d   1       7.524  -2.420  -2.708  0.00  0.00     0.028 H 
ATOM     20  H   LIG d   1       7.959  -0.886  -6.019  0.00  0.00     0.082 H 
ATOM     21  H   LIG d   1       6.994   0.583  -5.719  0.00  0.00     0.082 H 
ATOM     22  H   LIG d   1       6.544   1.645  -3.076  0.00  0.00     0.064 H 
ATOM     23  H   LIG d   1       4.383   2.433  -2.139  0.00  0.00     0.062 H 
ATOM     24  H   LIG d   1       2.494   0.862  -2.008  0.00  0.00     0.067 H 
ATOM     25  H   LIG d   1       4.100  -3.003  -4.018  0.00  0.00     0.050 H 
ATOM     26  H   LIG d   1       5.067  -3.174  -2.542  0.00  0.00     0.050 H 
ATOM     27  N   LIG d   1       5.849  -1.167  -5.986  0.00  0.00     0.238 N 
ATOM     28  H   LIG d   1       5.050  -0.830  -5.435  0.00  0.00     0.203 HD
ENDROOT
BRANCH  27  29
ATOM     29  C   LIG d   1       5.612  -0.860  -7.411  0.00  0.00    -0.004 C 
ATOM     30  H   LIG d   1       5.997  -1.677  -8.020  0.00  0.00     0.084 H 
ATOM     31  H   LIG d   1       6.112   0.068  -7.691  0.00  0.00     0.084 H 
BRANCH  29  32
ATOM     32  C   LIG d   1       4.106  -0.718  -7.642  0.00  0.00     0.104 C 
ATOM     33  H   LIG d   1       3.898   0.249  -8.098  0.00  0.00     0.066 H 
BRANCH  32  34
ATOM     34  C   LIG d   1       3.624  -1.835  -8.569  0.00  0.00     0.025 C 
ATOM     35  H   LIG d   1       2.568  -2.031  -8.384  0.00  0.00     0.040 H 
ATOM     36  H   LIG d   1       4.201  -2.740  -8.377  0.00  0.00     0.040 H 
BRANCH  34  37
ATOM     37  S   LIG d   1       3.852  -1.328 -10.296  0.00  0.00    -0.158 SA
BRANCH  37  38
ATOM     38  C   LIG d   1       2.965   0.249 -10.411  0.00  0.00    -0.006 C 
ATOM     39  H   LIG d   1       2.484   0.466  -9.457  0.00  0.00     0.038 H 
ATOM     40  H   LIG d   1       2.209   0.185 -11.193  0.00  0.00     0.038 H 
BRANCH  38  41
ATOM     41  C   LIG d   1       3.954   1.367 -10.749  0.00  0.00    -0.044 C 
ATOM     42  H   LIG d   1       3.701   1.795 -11.718  0.00  0.00     0.027 H 
ATOM     43  H   LIG d   1       4.964   0.960 -10.783  0.00  0.00     0.027 H 
BRANCH  41  44
ATOM     44  C   LIG d   1       3.879   2.456  -9.676  0.00  0.00    -0.055 C 
ATOM     45  H   LIG d   1       3.738   3.426 -10.153  0.00  0.00     0.026 H 
ATOM     46  H   LIG d   1       4.806   2.465  -9.103  0.00  0.00     0.026 H 
BRANCH  44  47
ATOM     47  C   LIG d   1       2.703   2.171  -8.741  0.00  0.00    -0.065 C 
ATOM     48  H   LIG d   1       2.485   1.102  -8.746  0.00  0.00     0.023 H 
ATOM     49  H   LIG d   1       2.959   2.485  -7.728  0.00  0.00     0.023 H 
ATOM     50  H   LIG d   1       1.827   2.722  -9.081  0.00  0.00     0.023 H 
ENDBRANCH  44  47
ENDBRANCH  41  44
ENDBRANCH  38  41
ENDBRANCH  37  38
ENDBRANCH  34  37
ENDBRANCH  32  34
BRANCH  32  51
ATOM     51  O   LIG d   1       3.422  -0.811  -6.390  0.00  0.00    -0.386 OA
ATOM     52  H   LIG d   1       3.293   0.039  -5.948  0.00  0.00     0.210 HD
ENDBRANCH  32  51
ENDBRANCH  29  32
ENDBRANCH  27  29
TORSDOF 9
ENDMDL
MODEL 6
REMARK VINA RESULT:      -5.7      2.422      6.807
REMARK  9 active torsions:
REMARK  status: ('A' for Active; 'I' for Inactive)
REMARK    1  A    between atoms: C_1  and  C_2 
REMARK    2  A    between atoms: C_2  and  C_3 
REMARK    3  A    between atoms: C_3  and  C_4 
REMARK    4  A    between atoms: C_4  and  S_5 
REMARK    5  A    between atoms: S_5  and  C_6 
REMARK    6  A    between atoms: C_6  and  C_7 
REMARK    7  A    between atoms: C_7  and  C_9 
REMARK    8  A    between atoms: C_7  and  O_25 
REMARK    9  A    between atoms: C_9  and  N_51 
ROOT
ATOM      1  C   LIG d   1       3.743   0.051  -7.126  0.00  0.00    -0.027 C 
ATOM      2  C   LIG d   1       2.552   0.666  -7.849  0.00  0.00     0.018 C 
ATOM      3  H   LIG d   1       1.781   0.890  -7.113  0.00  0.00     0.037 H 
ATOM      4  C   LIG d   1       2.941   1.970  -8.552  0.00  0.00    -0.031 C 
ATOM      5  C   LIG d   1       4.112   1.658  -9.491  0.00  0.00     0.040 C 
ATOM      6  H   LIG d   1       4.399   2.546 -10.052  0.00  0.00     0.042 H 
ATOM      7  C   LIG d   1       5.286   1.154  -8.634  0.00  0.00    -0.023 C 
ATOM      8  C   LIG d   1       3.726   0.538 -10.431  0.00  0.00     0.030 A 
ATOM      9  C   LIG d   1       4.336   0.477 -11.631  0.00  0.00    -0.042 A 
ATOM     10  C   LIG d   1       4.067  -0.570 -12.519  0.00  0.00    -0.055 A 
ATOM     11  C   LIG d   1       3.189  -1.544 -12.143  0.00  0.00     0.003 A 
ATOM     12  C   LIG d   1       2.566  -1.455 -10.891  0.00  0.00     0.252 A 
ATOM     13  O   LIG d   1       1.816  -2.345 -10.526  0.00  0.00    -0.268 OA
ATOM     14  N   LIG d   1       2.788  -0.390 -10.080  0.00  0.00    -0.311 N 
ATOM     15  C   LIG d   1       1.974  -0.302  -8.868  0.00  0.00     0.034 C 
ATOM     16  H   LIG d   1       3.462  -0.917  -6.712  0.00  0.00     0.082 H 
ATOM     17  H   LIG d   1       4.029   0.717  -6.312  0.00  0.00     0.082 H 
ATOM     18  H   LIG d   1       3.246   2.711  -7.813  0.00  0.00     0.028 H 
ATOM     19  H   LIG d   1       2.095   2.347  -9.127  0.00  0.00     0.028 H 
ATOM     20  H   LIG d   1       5.510   1.881  -7.853  0.00  0.00     0.082 H 
ATOM     21  H   LIG d   1       6.164   1.007  -9.263  0.00  0.00     0.082 H 
ATOM     22  H   LIG d   1       5.041   1.246 -11.907  0.00  0.00     0.064 H 
ATOM     23  H   LIG d   1       4.547  -0.607 -13.486  0.00  0.00     0.062 H 
ATOM     24  H   LIG d   1       2.977  -2.373 -12.801  0.00  0.00     0.067 H 
ATOM     25  H   LIG d   1       1.906  -1.291  -8.415  0.00  0.00     0.050 H 
ATOM     26  H   LIG d   1       0.972   0.029  -9.141  0.00  0.00     0.050 H 
ATOM     27  N   LIG d   1       4.880  -0.143  -8.048  0.00  0.00     0.238 N 
ATOM     28  H   LIG d   1       4.592  -0.775  -8.804  0.00  0.00     0.203 HD
ENDROOT
BRANCH  27  29
ATOM     29  C   LIG d   1       6.018  -0.747  -7.325  0.00  0.00    -0.004 C 
ATOM     30  H   LIG d   1       6.947  -0.333  -7.713  0.00  0.00     0.084 H 
ATOM     31  H   LIG d   1       6.022  -1.830  -7.452  0.00  0.00     0.084 H 
BRANCH  29  32
ATOM     32  C   LIG d   1       5.892  -0.410  -5.837  0.00  0.00     0.104 C 
ATOM     33  H   LIG d   1       4.860  -0.143  -5.611  0.00  0.00     0.066 H 
BRANCH  32  34
ATOM     34  C   LIG d   1       6.299  -1.625  -5.001  0.00  0.00     0.025 C 
ATOM     35  H   LIG d   1       6.818  -1.291  -4.103  0.00  0.00     0.040 H 
ATOM     36  H   LIG d   1       6.963  -2.262  -5.587  0.00  0.00     0.040 H 
BRANCH  34  37
ATOM     37  S   LIG d   1       4.818  -2.562  -4.533  0.00  0.00    -0.158 SA
BRANCH  37  38
ATOM     38  C   LIG d   1       3.810  -1.361  -3.622  0.00  0.00    -0.006 C 
ATOM     39  H   LIG d   1       2.760  -1.651  -3.680  0.00  0.00     0.038 H 
ATOM     40  H   LIG d   1       3.938  -0.372  -4.059  0.00  0.00     0.038 H 
BRANCH  38  41
ATOM     41  C   LIG d   1       4.251  -1.333  -2.157  0.00  0.00    -0.044 C 
ATOM     42  H   LIG d   1       5.143  -1.946  -2.035  0.00  0.00     0.027 H 
ATOM     43  H   LIG d   1       3.451  -1.725  -1.529  0.00  0.00     0.027 H 
BRANCH  41  44
ATOM     44  C   LIG d   1       4.562   0.108  -1.746  0.00  0.00    -0.055 C 
ATOM     45  H   LIG d   1       5.589   0.350  -2.019  0.00  0.00     0.026 H 
ATOM     46  H   LIG d   1       4.440   0.212  -0.667  0.00  0.00     0.026 H 
BRANCH  44  47
ATOM     47  C   LIG d   1       3.605   1.061  -2.463  0.00  0.00    -0.065 C 
ATOM     48  H   LIG d   1       2.713   0.516  -2.773  0.00  0.00     0.023 H 
ATOM     49  H   LIG d   1       3.319   1.867  -1.785  0.00  0.00     0.023 H 
ATOM     50  H   LIG d   1       4.098   1.481  -3.339  0.00  0.00     0.023 H 
ENDBRANCH  44  47
ENDBRANCH  41  44
ENDBRANCH  38  41
ENDBRANCH  37  38
ENDBRANCH  34  37
ENDBRANCH  32  34
BRANCH  32  51
ATOM     51  O   LIG d   1       6.748   0.691  -5.525  0.00  0.00    -0.386 OA
ATOM     52  H   LIG d   1       6.614   1.054  -4.639  0.00  0.00     0.210 HD
ENDBRANCH  32  51
ENDBRANCH  29  32
ENDBRANCH  27  29
TORSDOF 9
ENDMDL
MODEL 7
REMARK VINA RESULT:      -5.7      3.114      6.893
REMARK  9 active torsions:
REMARK  status: ('A' for Active; 'I' for Inactive)
REMARK    1  A    between atoms: C_1  and  C_2 
REMARK    2  A    between atoms: C_2  and  C_3 
REMARK    3  A    between atoms: C_3  and  C_4 
REMARK    4  A    between atoms: C_4  and  S_5 
REMARK    5  A    between atoms: S_5  and  C_6 
REMARK    6  A    between atoms: C_6  and  C_7 
REMARK    7  A    between atoms: C_7  and  C_9 
REMARK    8  A    between atoms: C_7  and  O_25 
REMARK    9  A    between atoms: C_9  and  N_51 
ROOT
ATOM      1  C   LIG d   1       4.272  -2.675 -10.607  0.00  0.00    -0.027 C 
ATOM      2  C   LIG d   1       4.223  -1.654 -11.736  0.00  0.00     0.018 C 
ATOM      3  H   LIG d   1       4.638  -2.113 -12.633  0.00  0.00     0.037 H 
ATOM      4  C   LIG d   1       2.784  -1.225 -12.037  0.00  0.00    -0.031 C 
ATOM      5  C   LIG d   1       2.177  -0.699 -10.731  0.00  0.00     0.040 C 
ATOM      6  H   LIG d   1       1.164  -0.336 -10.900  0.00  0.00     0.042 H 
ATOM      7  C   LIG d   1       2.178  -1.848  -9.709  0.00  0.00    -0.023 C 
ATOM      8  C   LIG d   1       3.049   0.404 -10.173  0.00  0.00     0.030 A 
ATOM      9  C   LIG d   1       2.471   1.339  -9.394  0.00  0.00    -0.042 A 
ATOM     10  C   LIG d   1       3.234   2.347  -8.798  0.00  0.00    -0.055 A 
ATOM     11  C   LIG d   1       4.584   2.359  -9.000  0.00  0.00     0.003 A 
ATOM     12  C   LIG d   1       5.160   1.377  -9.817  0.00  0.00     0.252 A 
ATOM     13  O   LIG d   1       6.370   1.350  -9.966  0.00  0.00    -0.268 OA
ATOM     14  N   LIG d   1       4.386   0.454 -10.443  0.00  0.00    -0.311 N 
ATOM     15  C   LIG d   1       5.054  -0.428 -11.399  0.00  0.00     0.034 C 
ATOM     16  H   LIG d   1       5.309  -2.894 -10.354  0.00  0.00     0.082 H 
ATOM     17  H   LIG d   1       3.788  -3.589 -10.952  0.00  0.00     0.082 H 
ATOM     18  H   LIG d   1       2.210  -2.080 -12.393  0.00  0.00     0.028 H 
ATOM     19  H   LIG d   1       2.782  -0.438 -12.791  0.00  0.00     0.028 H 
ATOM     20  H   LIG d   1       1.670  -2.716 -10.130  0.00  0.00     0.082 H 
ATOM     21  H   LIG d   1       1.672  -1.532  -8.798  0.00  0.00     0.082 H 
ATOM     22  H   LIG d   1       1.404   1.306  -9.230  0.00  0.00     0.064 H 
ATOM     23  H   LIG d   1       2.764   3.105  -8.187  0.00  0.00     0.062 H 
ATOM     24  H   LIG d   1       5.200   3.115  -8.537  0.00  0.00     0.067 H 
ATOM     25  H   LIG d   1       6.005  -0.752 -10.976  0.00  0.00     0.050 H 
ATOM     26  H   LIG d   1       5.249   0.130 -12.315  0.00  0.00     0.050 H 
ATOM     27  N   LIG d   1       3.592  -2.163  -9.401  0.00  0.00     0.238 N 
ATOM     28  H   LIG d   1       4.064  -1.306  -9.091  0.00  0.00     0.203 HD
ENDROOT
BRANCH  27  29
ATOM     29  C   LIG d   1       3.660  -3.167  -8.319  0.00  0.00    -0.004 C 
ATOM     30  H   LIG d   1       4.107  -4.081  -8.709  0.00  0.00     0.084 H 
ATOM     31  H   LIG d   1       2.664  -3.385  -7.935  0.00  0.00     0.084 H 
BRANCH  29  32
ATOM     32  C   LIG d   1       4.533  -2.615  -7.189  0.00  0.00     0.104 C 
ATOM     33  H   LIG d   1       5.584  -2.764  -7.436  0.00  0.00     0.066 H 
BRANCH  32  34
ATOM     34  C   LIG d   1       4.256  -1.121  -7.014  0.00  0.00     0.025 C 
ATOM     35  H   LIG d   1       3.222  -0.908  -7.285  0.00  0.00     0.040 H 
ATOM     36  H   LIG d   1       4.925  -0.550  -7.658  0.00  0.00     0.040 H 
BRANCH  34  37
ATOM     37  S   LIG d   1       4.537  -0.652  -5.284  0.00  0.00    -0.158 SA
BRANCH  37  38
ATOM     38  C   LIG d   1       2.912  -0.086  -4.714  0.00  0.00    -0.006 C 
ATOM     39  H   LIG d   1       2.143  -0.773  -5.067  0.00  0.00     0.038 H 
ATOM     40  H   LIG d   1       2.716   0.911  -5.105  0.00  0.00     0.038 H 
BRANCH  38  41
ATOM     41  C   LIG d   1       2.895  -0.046  -3.184  0.00  0.00    -0.044 C 
ATOM     42  H   LIG d   1       3.420  -0.916  -2.792  0.00  0.00     0.027 H 
ATOM     43  H   LIG d   1       1.864  -0.054  -2.831  0.00  0.00     0.027 H 
BRANCH  41  44
ATOM     44  C   LIG d   1       3.589   1.229  -2.699  0.00  0.00    -0.055 C 
ATOM     45  H   LIG d   1       2.849   1.905  -2.271  0.00  0.00     0.026 H 
ATOM     46  H   LIG d   1       4.082   1.716  -3.540  0.00  0.00     0.026 H 
BRANCH  44  47
ATOM     47  C   LIG d   1       4.628   0.871  -1.635  0.00  0.00    -0.065 C 
ATOM     48  H   LIG d   1       4.643   1.645  -0.866  0.00  0.00     0.023 H 
ATOM     49  H   LIG d   1       4.368  -0.086  -1.181  0.00  0.00     0.023 H 
ATOM     50  H   LIG d   1       5.612   0.799  -2.097  0.00  0.00     0.023 H 
ENDBRANCH  44  47
ENDBRANCH  41  44
ENDBRANCH  38  41
ENDBRANCH  37  38
ENDBRANCH  34  37
ENDBRANCH  32  34
BRANCH  32  51
ATOM     51  O   LIG d   1       4.227  -3.301  -5.973  0.00  0.00    -0.386 OA
ATOM     52  H   LIG d   1       4.864  -3.145  -5.263  0.00  0.00     0.210 HD
ENDBRANCH  32  51
ENDBRANCH  29  32
ENDBRANCH  27  29
TORSDOF 9
ENDMDL
MODEL 8
REMARK VINA RESULT:      -5.5      1.660      3.230
REMARK  9 active torsions:
REMARK  status: ('A' for Active; 'I' for Inactive)
REMARK    1  A    between atoms: C_1  and  C_2 
REMARK    2  A    between atoms: C_2  and  C_3 
REMARK    3  A    between atoms: C_3  and  C_4 
REMARK    4  A    between atoms: C_4  and  S_5 
REMARK    5  A    between atoms: S_5  and  C_6 
REMARK    6  A    between atoms: C_6  and  C_7 
REMARK    7  A    between atoms: C_7  and  C_9 
REMARK    8  A    between atoms: C_7  and  O_25 
REMARK    9  A    between atoms: C_9  and  N_51 
ROOT
ATOM      1  C   LIG d   1       3.132   0.512  -3.346  0.00  0.00    -0.027 C 
ATOM      2  C   LIG d   1       4.071   0.359  -2.157  0.00  0.00     0.018 C 
ATOM      3  H   LIG d   1       3.595   0.804  -1.283  0.00  0.00     0.037 H 
ATOM      4  C   LIG d   1       4.351  -1.116  -1.855  0.00  0.00    -0.031 C 
ATOM      5  C   LIG d   1       4.903  -1.752  -3.135  0.00  0.00     0.040 C 
ATOM      6  H   LIG d   1       5.163  -2.796  -2.962  0.00  0.00     0.042 H 
ATOM      7  C   LIG d   1       3.825  -1.637  -4.226  0.00  0.00    -0.023 C 
ATOM      8  C   LIG d   1       6.112  -0.977  -3.610  0.00  0.00     0.030 A 
ATOM      9  C   LIG d   1       7.039  -1.627  -4.339  0.00  0.00    -0.042 A 
ATOM     10  C   LIG d   1       8.147  -0.950  -4.859  0.00  0.00    -0.055 A 
ATOM     11  C   LIG d   1       8.265   0.390  -4.634  0.00  0.00     0.003 A 
ATOM     12  C   LIG d   1       7.288   1.043  -3.869  0.00  0.00     0.252 A 
ATOM     13  O   LIG d   1       7.360   2.249  -3.702  0.00  0.00    -0.268 OA
ATOM     14  N   LIG d   1       6.263   0.348  -3.315  0.00  0.00    -0.311 N 
ATOM     15  C   LIG d   1       5.385   1.081  -2.404  0.00  0.00     0.034 C 
ATOM     16  H   LIG d   1       3.022   1.567  -3.594  0.00  0.00     0.082 H 
ATOM     17  H   LIG d   1       2.159   0.108  -3.066  0.00  0.00     0.082 H 
ATOM     18  H   LIG d   1       3.428  -1.615  -1.562  0.00  0.00     0.028 H 
ATOM     19  H   LIG d   1       5.086  -1.197  -1.054  0.00  0.00     0.028 H 
ATOM     20  H   LIG d   1       2.891  -2.070  -3.868  0.00  0.00     0.082 H 
ATOM     21  H   LIG d   1       4.152  -2.159  -5.125  0.00  0.00     0.082 H 
ATOM     22  H   LIG d   1       6.923  -2.685  -4.523  0.00  0.00     0.064 H 
ATOM     23  H   LIG d   1       8.896  -1.480  -5.429  0.00  0.00     0.062 H 
ATOM     24  H   LIG d   1       9.101   0.941  -5.038  0.00  0.00     0.067 H 
ATOM     25  H   LIG d   1       5.174   2.062  -2.830  0.00  0.00     0.050 H 
ATOM     26  H   LIG d   1       5.899   1.215  -1.452  0.00  0.00     0.050 H 
ATOM     27  N   LIG d   1       3.657  -0.197  -4.530  0.00  0.00     0.238 N 
ATOM     28  H   LIG d   1       4.570   0.200  -4.778  0.00  0.00     0.203 HD
ENDROOT
BRANCH  27  29
ATOM     29  C   LIG d   1       2.733  -0.027  -5.670  0.00  0.00    -0.004 C 
ATOM     30  H   LIG d   1       2.089   0.831  -5.482  0.00  0.00     0.084 H 
ATOM     31  H   LIG d   1       2.120  -0.918  -5.803  0.00  0.00     0.084 H 
BRANCH  29  32
ATOM     32  C   LIG d   1       3.555   0.220  -6.937  0.00  0.00     0.104 C 
ATOM     33  H   LIG d   1       4.614   0.252  -6.683  0.00  0.00     0.066 H 
BRANCH  32  34
ATOM     34  C   LIG d   1       3.304  -0.910  -7.937  0.00  0.00     0.025 C 
ATOM     35  H   LIG d   1       3.025  -0.487  -8.902  0.00  0.00     0.040 H 
ATOM     36  H   LIG d   1       2.496  -1.545  -7.572  0.00  0.00     0.040 H 
BRANCH  34  37
ATOM     37  S   LIG d   1       4.813  -1.899  -8.124  0.00  0.00    -0.158 SA
BRANCH  37  38
ATOM     38  C   LIG d   1       4.377  -3.505  -7.403  0.00  0.00    -0.006 C 
ATOM     39  H   LIG d   1       3.726  -4.047  -8.089  0.00  0.00     0.038 H 
ATOM     40  H   LIG d   1       3.860  -3.350  -6.457  0.00  0.00     0.038 H 
BRANCH  38  41
ATOM     41  C   LIG d   1       5.651  -4.318  -7.161  0.00  0.00    -0.044 C 
ATOM     42  H   LIG d   1       6.521  -3.707  -7.396  0.00  0.00     0.027 H 
ATOM     43  H   LIG d   1       5.644  -5.202  -7.798  0.00  0.00     0.027 H 
BRANCH  41  44
ATOM     44  C   LIG d   1       5.711  -4.747  -5.693  0.00  0.00    -0.055 C 
ATOM     45  H   LIG d   1       4.985  -5.541  -5.517  0.00  0.00     0.026 H 
ATOM     46  H   LIG d   1       5.478  -3.894  -5.056  0.00  0.00     0.026 H 
BRANCH  44  47
ATOM     47  C   LIG d   1       7.115  -5.259  -5.368  0.00  0.00    -0.065 C 
ATOM     48  H   LIG d   1       7.369  -4.997  -4.340  0.00  0.00     0.023 H 
ATOM     49  H   LIG d   1       7.143  -6.343  -5.485  0.00  0.00     0.023 H 
ATOM     50  H   LIG d   1       7.834  -4.802  -6.047  0.00  0.00     0.023 H 
ENDBRANCH  44  47
ENDBRANCH  41  44
ENDBRANCH  38  41
ENDBRANCH  37  38
ENDBRANCH  34  37
ENDBRANCH  32  34
BRANCH  32  51
ATOM     51  O   LIG d   1       3.167   1.466  -7.521  0.00  0.00    -0.386 OA
ATOM     52  H   LIG d   1       3.533   1.619  -8.402  0.00  0.00     0.210 HD
ENDBRANCH  32  51
ENDBRANCH  29  32
ENDBRANCH  27  29
TORSDOF 9
ENDMDL
MODEL 9
REMARK VINA RESULT:      -5.5      3.534      6.225
REMARK  9 active torsions:
REMARK  status: ('A' for Active; 'I' for Inactive)
REMARK    1  A    between atoms: C_1  and  C_2 
REMARK    2  A    between atoms: C_2  and  C_3 
REMARK    3  A    between atoms: C_3  and  C_4 
REMARK    4  A    between atoms: C_4  and  S_5 
REMARK    5  A    between atoms: S_5  and  C_6 
REMARK    6  A    between atoms: C_6  and  C_7 
REMARK    7  A    between atoms: C_7  and  C_9 
REMARK    8  A    between atoms: C_7  and  O_25 
REMARK    9  A    between atoms: C_9  and  N_51 
ROOT
ATOM      1  C   LIG d   1       6.752  -0.450  -6.614  0.00  0.00    -0.027 C 
ATOM      2  C   LIG d   1       5.482  -1.144  -7.089  0.00  0.00     0.018 C 
ATOM      3  H   LIG d   1       5.425  -1.053  -8.174  0.00  0.00     0.037 H 
ATOM      4  C   LIG d   1       5.493  -2.633  -6.730  0.00  0.00    -0.031 C 
ATOM      5  C   LIG d   1       5.700  -2.741  -5.215  0.00  0.00     0.040 C 
ATOM      6  H   LIG d   1       5.671  -3.783  -4.899  0.00  0.00     0.042 H 
ATOM      7  C   LIG d   1       7.061  -2.110  -4.875  0.00  0.00    -0.023 C 
ATOM      8  C   LIG d   1       4.638  -1.939  -4.498  0.00  0.00     0.030 A 
ATOM      9  C   LIG d   1       4.293  -2.312  -3.250  0.00  0.00    -0.042 A 
ATOM     10  C   LIG d   1       3.363  -1.573  -2.512  0.00  0.00    -0.055 A 
ATOM     11  C   LIG d   1       2.821  -0.451  -3.069  0.00  0.00     0.003 A 
ATOM     12  C   LIG d   1       3.194  -0.087  -4.369  0.00  0.00     0.252 A 
ATOM     13  O   LIG d   1       2.752   0.940  -4.858  0.00  0.00    -0.268 OA
ATOM     14  N   LIG d   1       4.042  -0.862  -5.091  0.00  0.00    -0.311 N 
ATOM     15  C   LIG d   1       4.248  -0.491  -6.491  0.00  0.00     0.034 C 
ATOM     16  H   LIG d   1       6.678   0.620  -6.801  0.00  0.00     0.082 H 
ATOM     17  H   LIG d   1       7.593  -0.854  -7.179  0.00  0.00     0.082 H 
ATOM     18  H   LIG d   1       6.310  -3.133  -7.252  0.00  0.00     0.028 H 
ATOM     19  H   LIG d   1       4.543  -3.088  -7.008  0.00  0.00     0.028 H 
ATOM     20  H   LIG d   1       7.843  -2.575  -5.476  0.00  0.00     0.082 H 
ATOM     21  H   LIG d   1       7.278  -2.250  -3.817  0.00  0.00     0.082 H 
ATOM     22  H   LIG d   1       4.743  -3.192  -2.817  0.00  0.00     0.064 H 
ATOM     23  H   LIG d   1       3.078  -1.885  -1.517  0.00  0.00     0.062 H 
ATOM     24  H   LIG d   1       2.114   0.148  -2.514  0.00  0.00     0.067 H 
ATOM     25  H   LIG d   1       4.354   0.592  -6.557  0.00  0.00     0.050 H 
ATOM     26  H   LIG d   1       3.373  -0.794  -7.066  0.00  0.00     0.050 H 
ATOM     27  N   LIG d   1       6.962  -0.662  -5.168  0.00  0.00     0.238 N 
ATOM     28  H   LIG d   1       6.162  -0.272  -4.655  0.00  0.00     0.203 HD
ENDROOT
BRANCH  27  29
ATOM     29  C   LIG d   1       8.194   0.026  -4.731  0.00  0.00    -0.004 C 
ATOM     30  H   LIG d   1       8.715   0.413  -5.606  0.00  0.00     0.084 H 
ATOM     31  H   LIG d   1       8.847  -0.661  -4.194  0.00  0.00     0.084 H 
BRANCH  29  32
ATOM     32  C   LIG d   1       7.809   1.188  -3.812  0.00  0.00     0.104 C 
ATOM     33  H   LIG d   1       8.192   1.000  -2.809  0.00  0.00     0.066 H 
BRANCH  32  34
ATOM     34  C   LIG d   1       8.411   2.487  -4.352  0.00  0.00     0.025 C 
ATOM     35  H   LIG d   1       7.691   3.297  -4.237  0.00  0.00     0.040 H 
ATOM     36  H   LIG d   1       8.652   2.363  -5.409  0.00  0.00     0.040 H 
BRANCH  34  37
ATOM     37  S   LIG d   1       9.922   2.884  -3.430  0.00  0.00    -0.158 SA
BRANCH  37  38
ATOM     38  C   LIG d   1      10.007   4.694  -3.487  0.00  0.00    -0.006 C 
ATOM     39  H   LIG d   1       9.075   5.090  -3.891  0.00  0.00     0.038 H 
ATOM     40  H   LIG d   1      10.838   5.000  -4.122  0.00  0.00     0.038 H 
BRANCH  38  41
ATOM     41  C   LIG d   1      10.219   5.239  -2.072  0.00  0.00    -0.044 C 
ATOM     42  H   LIG d   1      11.062   4.727  -1.609  0.00  0.00     0.027 H 
ATOM     43  H   LIG d   1       9.321   5.070  -1.479  0.00  0.00     0.027 H 
BRANCH  41  44
ATOM     44  C   LIG d   1      10.510   6.740  -2.141  0.00  0.00    -0.055 C 
ATOM     45  H   LIG d   1      10.552   7.054  -3.184  0.00  0.00     0.026 H 
ATOM     46  H   LIG d   1      11.466   6.947  -1.661  0.00  0.00     0.026 H 
BRANCH  44  47
ATOM     47  C   LIG d   1       9.400   7.508  -1.421  0.00  0.00    -0.065 C 
ATOM     48  H   LIG d   1       9.781   7.897  -0.476  0.00  0.00     0.023 H 
ATOM     49  H   LIG d   1       9.066   8.336  -2.047  0.00  0.00     0.023 H 
ATOM     50  H   LIG d   1       8.563   6.839  -1.227  0.00  0.00     0.023 H 
ENDBRANCH  44  47
ENDBRANCH  41  44
ENDBRANCH  38  41
ENDBRANCH  37  38
ENDBRANCH  34  37
ENDBRANCH  32  34
BRANCH  32  51
ATOM     51  O   LIG d   1       6.386   1.307  -3.765  0.00  0.00    -0.386 OA
ATOM     52  H   LIG d   1       6.063   2.211  -3.880  0.00  0.00     0.210 HD
ENDBRANCH  32  51
ENDBRANCH  29  32
ENDBRANCH  27  29
TORSDOF 9
ENDMDL
MODEL 10
REMARK VINA RESULT:      -5.3      2.698      6.106
REMARK  9 active torsions:
REMARK  status: ('A' for Active; 'I' for Inactive)
REMARK    1  A    between atoms: C_1  and  C_2 
REMARK    2  A    between atoms: C_2  and  C_3 
REMARK    3  A    between atoms: C_3  and  C_4 
REMARK    4  A    between atoms: C_4  and  S_5 
REMARK    5  A    between atoms: S_5  and  C_6 
REMARK    6  A    between atoms: C_6  and  C_7 
REMARK    7  A    between atoms: C_7  and  C_9 
REMARK    8  A    between atoms: C_7  and  O_25 
REMARK    9  A    between atoms: C_9  and  N_51 
ROOT
ATOM      1  C   LIG d   1       6.071  -1.438  -6.324  0.00  0.00    -0.027 C 
ATOM      2  C   LIG d   1       4.756  -2.042  -5.848  0.00  0.00     0.018 C 
ATOM      3  H   LIG d   1       4.336  -2.634  -6.661  0.00  0.00     0.037 H 
ATOM      4  C   LIG d   1       4.970  -2.961  -4.642  0.00  0.00    -0.031 C 
ATOM      5  C   LIG d   1       5.676  -2.142  -3.556  0.00  0.00     0.040 C 
ATOM      6  H   LIG d   1       5.812  -2.739  -2.655  0.00  0.00     0.042 H 
ATOM      7  C   LIG d   1       7.035  -1.686  -4.114  0.00  0.00    -0.023 C 
ATOM      8  C   LIG d   1       4.871  -0.898  -3.252  0.00  0.00     0.030 A 
ATOM      9  C   LIG d   1       4.984  -0.351  -2.027  0.00  0.00    -0.042 A 
ATOM     10  C   LIG d   1       4.314   0.834  -1.706  0.00  0.00    -0.055 A 
ATOM     11  C   LIG d   1       3.556   1.442  -2.664  0.00  0.00     0.003 A 
ATOM     12  C   LIG d   1       3.452   0.851  -3.930  0.00  0.00     0.252 A 
ATOM     13  O   LIG d   1       2.816   1.411  -4.807  0.00  0.00    -0.268 OA
ATOM     14  N   LIG d   1       4.053  -0.338  -4.191  0.00  0.00    -0.311 N 
ATOM     15  C   LIG d   1       3.758  -0.956  -5.484  0.00  0.00     0.034 C 
ATOM     16  H   LIG d   1       5.880  -0.722  -7.122  0.00  0.00     0.082 H 
ATOM     17  H   LIG d   1       6.696  -2.244  -6.710  0.00  0.00     0.082 H 
ATOM     18  H   LIG d   1       5.592  -3.810  -4.929  0.00  0.00     0.028 H 
ATOM     19  H   LIG d   1       4.008  -3.316  -4.272  0.00  0.00     0.028 H 
ATOM     20  H   LIG d   1       7.596  -2.550  -4.469  0.00  0.00     0.082 H 
ATOM     21  H   LIG d   1       7.600  -1.175  -3.335  0.00  0.00     0.082 H 
ATOM     22  H   LIG d   1       5.601  -0.835  -1.285  0.00  0.00     0.064 H 
ATOM     23  H   LIG d   1       4.395   1.260  -0.716  0.00  0.00     0.062 H 
ATOM     24  H   LIG d   1       3.042   2.367  -2.449  0.00  0.00     0.067 H 
ATOM     25  H   LIG d   1       3.776  -0.187  -6.256  0.00  0.00     0.050 H 
ATOM     26  H   LIG d   1       2.760  -1.392  -5.445  0.00  0.00     0.050 H 
ATOM     27  N   LIG d   1       6.763  -0.741  -5.221  0.00  0.00     0.238 N 
ATOM     28  H   LIG d   1       6.160   0.014  -4.874  0.00  0.00     0.203 HD
ENDROOT
BRANCH  27  29
ATOM     29  C   LIG d   1       8.030  -0.158  -5.709  0.00  0.00    -0.004 C 
ATOM     30  H   LIG d   1       8.179   0.813  -5.239  0.00  0.00     0.084 H 
ATOM     31  H   LIG d   1       8.004  -0.038  -6.792  0.00  0.00     0.084 H 
BRANCH  29  32
ATOM     32  C   LIG d   1       9.181  -1.092  -5.327  0.00  0.00     0.104 C 
ATOM     33  H   LIG d   1       8.816  -1.858  -4.643  0.00  0.00     0.066 H 
BRANCH  32  34
ATOM     34  C   LIG d   1       9.740  -1.756  -6.587  0.00  0.00     0.025 C 
ATOM     35  H   LIG d   1      10.824  -1.648  -6.604  0.00  0.00     0.040 H 
ATOM     36  H   LIG d   1       9.313  -1.277  -7.469  0.00  0.00     0.040 H 
BRANCH  34  37
ATOM     37  S   LIG d   1       9.305  -3.517  -6.586  0.00  0.00    -0.158 SA
BRANCH  37  38
ATOM     38  C   LIG d   1      10.293  -4.211  -5.232  0.00  0.00    -0.006 C 
ATOM     39  H   LIG d   1      10.916  -3.429  -4.799  0.00  0.00     0.038 H 
ATOM     40  H   LIG d   1      10.927  -5.010  -5.617  0.00  0.00     0.038 H 
BRANCH  38  41
ATOM     41  C   LIG d   1       9.360  -4.774  -4.157  0.00  0.00    -0.044 C 
ATOM     42  H   LIG d   1       9.485  -5.854  -4.097  0.00  0.00     0.027 H 
ATOM     43  H   LIG d   1       8.327  -4.541  -4.415  0.00  0.00     0.027 H 
BRANCH  41  44
ATOM     44  C   LIG d   1       9.702  -4.144  -2.805  0.00  0.00    -0.055 C 
ATOM     45  H   LIG d   1       8.986  -3.354  -2.581  0.00  0.00     0.026 H 
ATOM     46  H   LIG d   1      10.707  -3.724  -2.844  0.00  0.00     0.026 H 
BRANCH  44  47
ATOM     47  C   LIG d   1       9.638  -5.214  -1.713  0.00  0.00    -0.065 C 
ATOM     48  H   LIG d   1       8.730  -5.078  -1.124  0.00  0.00     0.023 H 
ATOM     49  H   LIG d   1       9.627  -6.203  -2.174  0.00  0.00     0.023 H 
ATOM     50  H   LIG d   1      10.509  -5.125  -1.065  0.00  0.00     0.023 H 
ENDBRANCH  44  47
ENDBRANCH  41  44
ENDBRANCH  38  41
ENDBRANCH  37  38
ENDBRANCH  34  37
ENDBRANCH  32  34
BRANCH  32  51
ATOM     51  O   LIG d   1      10.214  -0.337  -4.689  0.00  0.00    -0.386 OA
ATOM     52  H   LIG d   1       9.975  -0.005  -3.814  0.00  0.00     0.210 HD
ENDBRANCH  32  51
ENDBRANCH  29  32
ENDBRANCH  27  29
TORSDOF 9
ENDMDL
