MODEL 1
REMARK VINA RESULT:      -4.9      0.000      0.000
REMARK  2 active torsions:
REMARK  status: ('A' for Active; 'I' for Inactive)
REMARK    1  A    between atoms: CA_3  and  C_9 
REMARK    2  A    between atoms: CA_5  and  C_7 
ROOT
ATOM      1  C   LIG d   1       3.993  -2.170  -2.566  0.00  0.00     0.001 C 
ATOM      2  C   LIG d   1       4.181  -0.736  -2.005  0.00  0.00     0.001 C 
ATOM      3  CA  LIG d   1       5.519  -0.291  -2.633  0.00  0.00     0.018 C 
ATOM      4  HA  LIG d   1       6.332  -0.450  -1.925  0.00  0.00     0.091 H 
ATOM      5  CA  LIG d   1       4.580  -2.028  -3.993  0.00  0.00     0.018 C 
ATOM      6  HA  LIG d   1       3.841  -1.594  -4.667  0.00  0.00     0.091 H 
ATOM      7  H   LIG d   1       4.558  -2.896  -1.981  0.00  0.00     0.033 H 
ATOM      8  H   LIG d   1       2.937  -2.439  -2.603  0.00  0.00     0.033 H 
ATOM      9  H   LIG d   1       4.253  -0.754  -0.918  0.00  0.00     0.033 H 
ATOM     10  H   LIG d   1       3.369  -0.084  -2.325  0.00  0.00     0.033 H 
ATOM     11  N   LIG d   1       5.728  -1.115  -3.833  0.00  0.00     0.240 N 
ATOM     12  H1  LIG d   1       6.591  -1.662  -3.730  0.00  0.00     0.203 HD
ATOM     13  H2  LIG d   1       5.803  -0.509  -4.659  0.00  0.00     0.203 HD
ENDROOT
BRANCH   3  14
ATOM     14  C   LIG d   1       5.450   1.166  -3.015  0.00  0.00     0.089 C 
ATOM     15  O   LIG d   1       6.463   1.771  -3.274  0.00  0.00    -0.544 OA
ATOM     16  OXT LIG d   1       4.263   1.791  -3.067  0.00  0.00    -0.544 OA
ENDBRANCH   3  14
BRANCH   5  17
ATOM     17  C   LIG d   1       5.039  -3.369  -4.507  0.00  0.00     0.089 C 
ATOM     18  O   LIG d   1       4.227  -4.217  -4.790  0.00  0.00    -0.544 OA
ATOM     19  OXT LIG d   1       6.349  -3.619  -4.649  0.00  0.00    -0.544 OA
ENDBRANCH   5  17
TORSDOF 2
ENDMDL
MODEL 2
REMARK VINA RESULT:      -4.8      0.498      4.401
REMARK  2 active torsions:
REMARK  status: ('A' for Active; 'I' for Inactive)
REMARK    1  A    between atoms: CA_3  and  C_9 
REMARK    2  A    between atoms: CA_5  and  C_7 
ROOT
ATOM      1  C   LIG d   1       4.308  -0.944  -2.014  0.00  0.00     0.001 C 
ATOM      2  C   LIG d   1       3.981  -2.344  -2.598  0.00  0.00     0.001 C 
ATOM      3  CA  LIG d   1       4.338  -2.191  -4.091  0.00  0.00     0.018 C 
ATOM      4  HA  LIG d   1       3.439  -1.970  -4.667  0.00  0.00     0.091 H 
ATOM      5  CA  LIG d   1       5.554  -0.544  -2.843  0.00  0.00     0.018 C 
ATOM      6  HA  LIG d   1       6.451  -1.002  -2.427  0.00  0.00     0.091 H 
ATOM      7  H   LIG d   1       3.486  -0.249  -2.183  0.00  0.00     0.033 H 
ATOM      8  H   LIG d   1       4.549  -1.011  -0.953  0.00  0.00     0.033 H 
ATOM      9  H   LIG d   1       2.923  -2.574  -2.476  0.00  0.00     0.033 H 
ATOM     10  H   LIG d   1       4.596  -3.113  -2.131  0.00  0.00     0.033 H 
ATOM     11  N   LIG d   1       5.288  -1.072  -4.194  0.00  0.00     0.240 N 
ATOM     12  H1  LIG d   1       4.886  -0.332  -4.781  0.00  0.00     0.203 HD
ATOM     13  H2  LIG d   1       6.165  -1.403  -4.614  0.00  0.00     0.203 HD
ENDROOT
BRANCH   3  14
ATOM     14  C   LIG d   1       4.976  -3.457  -4.602  0.00  0.00     0.089 C 
ATOM     15  O   LIG d   1       4.285  -4.388  -4.941  0.00  0.00    -0.544 OA
ATOM     16  OXT LIG d   1       6.313  -3.550  -4.681  0.00  0.00    -0.544 OA
ENDBRANCH   3  14
BRANCH   5  17
ATOM     17  C   LIG d   1       5.698   0.956  -2.882  0.00  0.00     0.089 C 
ATOM     18  O   LIG d   1       5.070   1.643  -2.112  0.00  0.00    -0.544 OA
ATOM     19  OXT LIG d   1       6.524   1.528  -3.772  0.00  0.00    -0.544 OA
ENDBRANCH   5  17
TORSDOF 2
ENDMDL
MODEL 3
REMARK VINA RESULT:      -4.5      1.702      4.237
REMARK  2 active torsions:
REMARK  status: ('A' for Active; 'I' for Inactive)
REMARK    1  A    between atoms: CA_3  and  C_9 
REMARK    2  A    between atoms: CA_5  and  C_7 
ROOT
ATOM      1  C   LIG d   1       5.303   1.150  -2.488  0.00  0.00     0.001 C 
ATOM      2  C   LIG d   1       4.185   0.083  -2.354  0.00  0.00     0.001 C 
ATOM      3  CA  LIG d   1       4.272  -0.683  -3.691  0.00  0.00     0.018 C 
ATOM      4  HA  LIG d   1       3.530  -0.295  -4.389  0.00  0.00     0.091 H 
ATOM      5  CA  LIG d   1       6.386   0.371  -3.276  0.00  0.00     0.018 C 
ATOM      6  HA  LIG d   1       6.971  -0.253  -2.602  0.00  0.00     0.091 H 
ATOM      7  H   LIG d   1       4.952   2.014  -3.055  0.00  0.00     0.033 H 
ATOM      8  H   LIG d   1       5.674   1.452  -1.509  0.00  0.00     0.033 H 
ATOM      9  H   LIG d   1       3.210   0.557  -2.245  0.00  0.00     0.033 H 
ATOM     10  H   LIG d   1       4.383  -0.583  -1.514  0.00  0.00     0.033 H 
ATOM     11  N   LIG d   1       5.626  -0.466  -4.224  0.00  0.00     0.240 N 
ATOM     12  H1  LIG d   1       5.567   0.009  -5.133  0.00  0.00     0.203 HD
ATOM     13  H2  LIG d   1       6.099  -1.370  -4.340  0.00  0.00     0.203 HD
ENDROOT
BRANCH   3  14
ATOM     14  C   LIG d   1       4.040  -2.154  -3.460  0.00  0.00     0.089 C 
ATOM     15  O   LIG d   1       4.264  -2.947  -4.342  0.00  0.00    -0.544 OA
ATOM     16  OXT LIG d   1       3.583  -2.582  -2.272  0.00  0.00    -0.544 OA
ENDBRANCH   3  14
BRANCH   5  17
ATOM     17  C   LIG d   1       7.283   1.328  -4.019  0.00  0.00     0.089 C 
ATOM     18  O   LIG d   1       8.030   2.054  -3.407  0.00  0.00    -0.544 OA
ATOM     19  OXT LIG d   1       7.251   1.374  -5.360  0.00  0.00    -0.544 OA
ENDBRANCH   5  17
TORSDOF 2
ENDMDL
MODEL 4
REMARK VINA RESULT:      -4.5      1.203      1.660
REMARK  2 active torsions:
REMARK  status: ('A' for Active; 'I' for Inactive)
REMARK    1  A    between atoms: CA_3  and  C_9 
REMARK    2  A    between atoms: CA_5  and  C_7 
ROOT
ATOM      1  C   LIG d   1       4.233  -2.683  -3.382  0.00  0.00     0.001 C 
ATOM      2  C   LIG d   1       3.584  -1.510  -2.603  0.00  0.00     0.001 C 
ATOM      3  CA  LIG d   1       4.803  -0.720  -2.082  0.00  0.00     0.018 C 
ATOM      4  HA  LIG d   1       5.020  -1.009  -1.054  0.00  0.00     0.091 H 
ATOM      5  CA  LIG d   1       5.481  -1.998  -3.994  0.00  0.00     0.018 C 
ATOM      6  HA  LIG d   1       5.212  -1.457  -4.900  0.00  0.00     0.091 H 
ATOM      7  H   LIG d   1       4.521  -3.489  -2.707  0.00  0.00     0.033 H 
ATOM      8  H   LIG d   1       3.566  -3.049  -4.163  0.00  0.00     0.033 H 
ATOM      9  H   LIG d   1       2.984  -1.884  -1.773  0.00  0.00     0.033 H 
ATOM     10  H   LIG d   1       2.977  -0.891  -3.265  0.00  0.00     0.033 H 
ATOM     11  N   LIG d   1       5.940  -1.060  -2.952  0.00  0.00     0.240 N 
ATOM     12  H1  LIG d   1       6.681  -1.500  -2.394  0.00  0.00     0.203 HD
ATOM     13  H2  LIG d   1       6.304  -0.207  -3.393  0.00  0.00     0.203 HD
ENDROOT
BRANCH   3  14
ATOM     14  C   LIG d   1       4.527   0.760  -2.152  0.00  0.00     0.089 C 
ATOM     15  O   LIG d   1       3.415   1.179  -1.935  0.00  0.00    -0.544 OA
ATOM     16  OXT LIG d   1       5.518   1.614  -2.453  0.00  0.00    -0.544 OA
ENDBRANCH   3  14
BRANCH   5  17
ATOM     17  C   LIG d   1       6.548  -3.021  -4.290  0.00  0.00     0.089 C 
ATOM     18  O   LIG d   1       6.294  -3.975  -4.987  0.00  0.00    -0.544 OA
ATOM     19  OXT LIG d   1       7.780  -2.873  -3.778  0.00  0.00    -0.544 OA
ENDBRANCH   5  17
TORSDOF 2
ENDMDL
MODEL 5
REMARK VINA RESULT:      -4.3      2.311      3.119
REMARK  2 active torsions:
REMARK  status: ('A' for Active; 'I' for Inactive)
REMARK    1  A    between atoms: CA_3  and  C_9 
REMARK    2  A    between atoms: CA_5  and  C_7 
ROOT
ATOM      1  C   LIG d   1       4.447  -1.594  -2.531  0.00  0.00     0.001 C 
ATOM      2  C   LIG d   1       3.057  -0.997  -2.871  0.00  0.00     0.001 C 
ATOM      3  CA  LIG d   1       3.411   0.310  -3.611  0.00  0.00     0.018 C 
ATOM      4  HA  LIG d   1       3.371   1.151  -2.919  0.00  0.00     0.091 H 
ATOM      5  CA  LIG d   1       5.275  -1.189  -3.776  0.00  0.00     0.018 C 
ATOM      6  HA  LIG d   1       5.100  -1.889  -4.593  0.00  0.00     0.091 H 
ATOM      7  H   LIG d   1       4.855  -1.142  -1.626  0.00  0.00     0.033 H 
ATOM      8  H   LIG d   1       4.393  -2.678  -2.433  0.00  0.00     0.033 H 
ATOM      9  H   LIG d   1       2.495  -0.784  -1.962  0.00  0.00     0.033 H 
ATOM     10  H   LIG d   1       2.494  -1.667  -3.521  0.00  0.00     0.033 H 
ATOM     11  N   LIG d   1       4.777   0.153  -4.134  0.00  0.00     0.240 N 
ATOM     12  H1  LIG d   1       5.388   0.868  -3.722  0.00  0.00     0.203 HD
ATOM     13  H2  LIG d   1       4.770   0.256  -5.155  0.00  0.00     0.203 HD
ENDROOT
BRANCH   3  14
ATOM     14  C   LIG d   1       2.448   0.537  -4.749  0.00  0.00     0.089 C 
ATOM     15  O   LIG d   1       1.386  -0.037  -4.765  0.00  0.00    -0.544 OA
ATOM     16  OXT LIG d   1       2.772   1.378  -5.744  0.00  0.00    -0.544 OA
ENDBRANCH   3  14
BRANCH   5  17
ATOM     17  C   LIG d   1       6.742  -1.135  -3.435  0.00  0.00     0.089 C 
ATOM     18  O   LIG d   1       7.327  -2.145  -3.122  0.00  0.00    -0.544 OA
ATOM     19  OXT LIG d   1       7.398   0.035  -3.479  0.00  0.00    -0.544 OA
ENDBRANCH   5  17
TORSDOF 2
ENDMDL
MODEL 6
REMARK VINA RESULT:      -4.2      1.721      4.532
REMARK  2 active torsions:
REMARK  status: ('A' for Active; 'I' for Inactive)
REMARK    1  A    between atoms: CA_3  and  C_9 
REMARK    2  A    between atoms: CA_5  and  C_7 
ROOT
ATOM      1  C   LIG d   1       5.484  -0.643  -3.063  0.00  0.00     0.001 C 
ATOM      2  C   LIG d   1       5.941  -2.084  -3.411  0.00  0.00     0.001 C 
ATOM      3  CA  LIG d   1       4.624  -2.778  -3.816  0.00  0.00     0.018 C 
ATOM      4  HA  LIG d   1       4.223  -3.334  -2.969  0.00  0.00     0.091 H 
ATOM      5  CA  LIG d   1       4.358  -0.413  -4.102  0.00  0.00     0.018 C 
ATOM      6  HA  LIG d   1       4.780  -0.118  -5.062  0.00  0.00     0.091 H 
ATOM      7  H   LIG d   1       5.095  -0.592  -2.046  0.00  0.00     0.033 H 
ATOM      8  H   LIG d   1       6.297   0.069  -3.204  0.00  0.00     0.033 H 
ATOM      9  H   LIG d   1       6.381  -2.569  -2.541  0.00  0.00     0.033 H 
ATOM     10  H   LIG d   1       6.646  -2.077  -4.243  0.00  0.00     0.033 H 
ATOM     11  N   LIG d   1       3.684  -1.720  -4.216  0.00  0.00     0.240 N 
ATOM     12  H1  LIG d   1       2.862  -1.739  -3.600  0.00  0.00     0.203 HD
ATOM     13  H2  LIG d   1       3.387  -1.871  -5.187  0.00  0.00     0.203 HD
ENDROOT
BRANCH   3  14
ATOM     14  C   LIG d   1       4.868  -3.713  -4.973  0.00  0.00     0.089 C 
ATOM     15  O   LIG d   1       5.580  -3.371  -5.887  0.00  0.00    -0.544 OA
ATOM     16  OXT LIG d   1       4.295  -4.927  -4.987  0.00  0.00    -0.544 OA
ENDBRANCH   3  14
BRANCH   5  17
ATOM     17  C   LIG d   1       3.395   0.636  -3.607  0.00  0.00     0.089 C 
ATOM     18  O   LIG d   1       2.811   1.341  -4.396  0.00  0.00    -0.544 OA
ATOM     19  OXT LIG d   1       3.187   0.788  -2.289  0.00  0.00    -0.544 OA
ENDBRANCH   5  17
TORSDOF 2
ENDMDL
MODEL 7
REMARK VINA RESULT:      -4.2      2.778      3.288
REMARK  2 active torsions:
REMARK  status: ('A' for Active; 'I' for Inactive)
REMARK    1  A    between atoms: CA_3  and  C_9 
REMARK    2  A    between atoms: CA_5  and  C_7 
ROOT
ATOM      1  C   LIG d   1       4.880  -1.671  -5.392  0.00  0.00     0.001 C 
ATOM      2  C   LIG d   1       5.352  -1.653  -3.914  0.00  0.00     0.001 C 
ATOM      3  CA  LIG d   1       5.283  -0.156  -3.545  0.00  0.00     0.018 C 
ATOM      4  HA  LIG d   1       6.269   0.297  -3.648  0.00  0.00     0.091 H 
ATOM      5  CA  LIG d   1       3.805  -0.555  -5.390  0.00  0.00     0.018 C 
ATOM      6  HA  LIG d   1       2.858  -0.940  -5.013  0.00  0.00     0.091 H 
ATOM      7  H   LIG d   1       5.699  -1.423  -6.066  0.00  0.00     0.033 H 
ATOM      8  H   LIG d   1       4.442  -2.635  -5.649  0.00  0.00     0.033 H 
ATOM      9  H   LIG d   1       6.373  -2.023  -3.831  0.00  0.00     0.033 H 
ATOM     10  H   LIG d   1       4.680  -2.236  -3.284  0.00  0.00     0.033 H 
ATOM     11  N   LIG d   1       4.339   0.476  -4.480  0.00  0.00     0.240 N 
ATOM     12  H1  LIG d   1       4.826   1.197  -5.025  0.00  0.00     0.203 HD
ATOM     13  H2  LIG d   1       3.568   0.905  -3.955  0.00  0.00     0.203 HD
ENDROOT
BRANCH   3  14
ATOM     14  C   LIG d   1       4.790   0.005  -2.130  0.00  0.00     0.089 C 
ATOM     15  O   LIG d   1       4.353  -0.948  -1.530  0.00  0.00    -0.544 OA
ATOM     16  OXT LIG d   1       4.838   1.208  -1.535  0.00  0.00    -0.544 OA
ENDBRANCH   3  14
BRANCH   5  17
ATOM     17  C   LIG d   1       3.629   0.005  -6.779  0.00  0.00     0.089 C 
ATOM     18  O   LIG d   1       2.562  -0.089  -7.337  0.00  0.00    -0.544 OA
ATOM     19  OXT LIG d   1       4.659   0.607  -7.394  0.00  0.00    -0.544 OA
ENDBRANCH   5  17
TORSDOF 2
ENDMDL
MODEL 8
REMARK VINA RESULT:      -4.1      3.156      3.566
REMARK  2 active torsions:
REMARK  status: ('A' for Active; 'I' for Inactive)
REMARK    1  A    between atoms: CA_3  and  C_9 
REMARK    2  A    between atoms: CA_5  and  C_7 
ROOT
ATOM      1  C   LIG d   1       2.558   0.396  -5.128  0.00  0.00     0.001 C 
ATOM      2  C   LIG d   1       2.854   0.049  -3.645  0.00  0.00     0.001 C 
ATOM      3  CA  LIG d   1       3.495  -1.352  -3.738  0.00  0.00     0.018 C 
ATOM      4  HA  LIG d   1       2.742  -2.117  -3.550  0.00  0.00     0.091 H 
ATOM      5  CA  LIG d   1       3.770  -0.247  -5.848  0.00  0.00     0.018 C 
ATOM      6  HA  LIG d   1       4.636   0.412  -5.796  0.00  0.00     0.091 H 
ATOM      7  H   LIG d   1       1.622  -0.057  -5.456  0.00  0.00     0.033 H 
ATOM      8  H   LIG d   1       2.541   1.476  -5.280  0.00  0.00     0.033 H 
ATOM      9  H   LIG d   1       1.931   0.013  -3.067  0.00  0.00     0.033 H 
ATOM     10  H   LIG d   1       3.551   0.765  -3.210  0.00  0.00     0.033 H 
ATOM     11  N   LIG d   1       4.027  -1.493  -5.102  0.00  0.00     0.240 N 
ATOM     12  H1  LIG d   1       3.563  -2.279  -5.573  0.00  0.00     0.203 HD
ATOM     13  H2  LIG d   1       5.038  -1.667  -5.061  0.00  0.00     0.203 HD
ENDROOT
BRANCH   3  14
ATOM     14  C   LIG d   1       4.613  -1.475  -2.734  0.00  0.00     0.089 C 
ATOM     15  O   LIG d   1       5.673  -1.951  -3.065  0.00  0.00    -0.544 OA
ATOM     16  OXT LIG d   1       4.431  -1.054  -1.472  0.00  0.00    -0.544 OA
ENDBRANCH   3  14
BRANCH   5  17
ATOM     17  C   LIG d   1       3.425  -0.552  -7.283  0.00  0.00     0.089 C 
ATOM     18  O   LIG d   1       2.387  -0.151  -7.753  0.00  0.00    -0.544 OA
ATOM     19  OXT LIG d   1       4.272  -1.269  -8.038  0.00  0.00    -0.544 OA
ENDBRANCH   5  17
TORSDOF 2
ENDMDL
MODEL 9
REMARK VINA RESULT:      -4.0      9.263     10.372
REMARK  2 active torsions:
REMARK  status: ('A' for Active; 'I' for Inactive)
REMARK    1  A    between atoms: CA_3  and  C_9 
REMARK    2  A    between atoms: CA_5  and  C_7 
ROOT
ATOM      1  C   LIG d   1       5.677  -9.855  -3.812  0.00  0.00     0.001 C 
ATOM      2  C   LIG d   1       6.903 -10.002  -2.872  0.00  0.00     0.001 C 
ATOM      3  CA  LIG d   1       6.268 -10.456  -1.540  0.00  0.00     0.018 C 
ATOM      4  HA  LIG d   1       6.130  -9.596  -0.884  0.00  0.00     0.091 H 
ATOM      5  CA  LIG d   1       4.772 -11.016  -3.328  0.00  0.00     0.018 C 
ATOM      6  HA  LIG d   1       5.088 -11.957  -3.777  0.00  0.00     0.091 H 
ATOM      7  H   LIG d   1       5.188  -8.892  -3.668  0.00  0.00     0.033 H 
ATOM      8  H   LIG d   1       5.966  -9.993  -4.854  0.00  0.00     0.033 H 
ATOM      9  H   LIG d   1       7.412  -9.047  -2.750  0.00  0.00     0.033 H 
ATOM     10  H   LIG d   1       7.592 -10.759  -3.248  0.00  0.00     0.033 H 
ATOM     11  N   LIG d   1       4.964 -11.054  -1.866  0.00  0.00     0.240 N 
ATOM     12  H1  LIG d   1       4.216 -10.521  -1.406  0.00  0.00     0.203 HD
ATOM     13  H2  LIG d   1       4.941 -12.027  -1.541  0.00  0.00     0.203 HD
ENDROOT
BRANCH   3  14
ATOM     14  C   LIG d   1       7.150 -11.477  -0.869  0.00  0.00     0.089 C 
ATOM     15  O   LIG d   1       6.745 -12.601  -0.691  0.00  0.00    -0.544 OA
ATOM     16  OXT LIG d   1       8.386 -11.138  -0.470  0.00  0.00    -0.544 OA
ENDBRANCH   3  14
BRANCH   5  17
ATOM     17  C   LIG d   1       3.330 -10.730  -3.664  0.00  0.00     0.089 C 
ATOM     18  O   LIG d   1       2.744 -11.432  -4.453  0.00  0.00    -0.544 OA
ATOM     19  OXT LIG d   1       2.699  -9.696  -3.087  0.00  0.00    -0.544 OA
ENDBRANCH   5  17
TORSDOF 2
ENDMDL
MODEL 10
REMARK VINA RESULT:      -4.0      2.514      3.616
REMARK  2 active torsions:
REMARK  status: ('A' for Active; 'I' for Inactive)
REMARK    1  A    between atoms: CA_3  and  C_9 
REMARK    2  A    between atoms: CA_5  and  C_7 
ROOT
ATOM      1  C   LIG d   1       6.722  -1.139  -3.659  0.00  0.00     0.001 C 
ATOM      2  C   LIG d   1       5.467  -1.235  -2.753  0.00  0.00     0.001 C 
ATOM      3  CA  LIG d   1       5.162   0.241  -2.423  0.00  0.00     0.018 C 
ATOM      4  HA  LIG d   1       5.587   0.499  -1.452  0.00  0.00     0.091 H 
ATOM      5  CA  LIG d   1       6.436   0.161  -4.452  0.00  0.00     0.018 C 
ATOM      6  HA  LIG d   1       5.766  -0.043  -5.287  0.00  0.00     0.091 H 
ATOM      7  H   LIG d   1       7.629  -1.041  -3.062  0.00  0.00     0.033 H 
ATOM      8  H   LIG d   1       6.787  -1.998  -4.327  0.00  0.00     0.033 H 
ATOM      9  H   LIG d   1       5.689  -1.795  -1.845  0.00  0.00     0.033 H 
ATOM     10  H   LIG d   1       4.634  -1.690  -3.289  0.00  0.00     0.033 H 
ATOM     11  N   LIG d   1       5.785   1.056  -3.477  0.00  0.00     0.240 N 
ATOM     12  H1  LIG d   1       6.486   1.681  -3.061  0.00  0.00     0.203 HD
ATOM     13  H2  LIG d   1       5.066   1.616  -3.951  0.00  0.00     0.203 HD
ENDROOT
BRANCH   3  14
ATOM     14  C   LIG d   1       3.673   0.470  -2.408  0.00  0.00     0.089 C 
ATOM     15  O   LIG d   1       3.229   1.543  -2.072  0.00  0.00    -0.544 OA
ATOM     16  OXT LIG d   1       2.838  -0.518  -2.768  0.00  0.00    -0.544 OA
ENDBRANCH   3  14
BRANCH   5  17
ATOM     17  C   LIG d   1       7.725   0.767  -4.947  0.00  0.00     0.089 C 
ATOM     18  O   LIG d   1       7.753   1.922  -5.300  0.00  0.00    -0.544 OA
ATOM     19  OXT LIG d   1       8.840   0.023  -4.997  0.00  0.00    -0.544 OA
ENDBRANCH   5  17
TORSDOF 2
ENDMDL
