MODEL 1
REMARK VINA RESULT:      -7.7      0.000      0.000
REMARK  3 active torsions:
REMARK  status: ('A' for Active; 'I' for Inactive)
REMARK    1  A    between atoms: C_1  and  C_2 
REMARK    2  A    between atoms: N_10  and  C_12 
REMARK    3  A    between atoms: C_20  and  C_25 
ROOT
ATOM      1  C   LIG d   1       8.090   1.512  -7.946  0.00  0.00     0.035 A 
ATOM      2  C   LIG d   1       8.236   1.457  -6.566  0.00  0.00     0.146 A 
ATOM      3  C   LIG d   1       7.203   0.901  -5.793  0.00  0.00     0.026 A 
ATOM      4  C   LIG d   1       6.050   0.411  -6.409  0.00  0.00    -0.042 A 
ATOM      5  C   LIG d   1       5.922   0.471  -7.769  0.00  0.00     0.013 A 
ATOM      6  C   LIG d   1       6.938   1.022  -8.544  0.00  0.00     0.134 A 
ATOM      7  O   LIG d   1       6.820   1.092  -9.897  0.00  0.00    -0.473 OA
ATOM      8  C   LIG d   1       5.819   0.272 -10.505  0.00  0.00     0.157 C 
ATOM      9  N   LIG d   1       4.552   0.458  -9.780  0.00  0.00    -0.293 NA
ATOM     10  C   LIG d   1       4.668  -0.067  -8.412  0.00  0.00     0.044 C 
ATOM     11  C   LIG d   1       7.361   0.845  -4.329  0.00  0.00    -0.000 A 
ATOM     12  C   LIG d   1       8.532   1.349  -3.796  0.00  0.00     0.031 A 
ATOM     13  C   LIG d   1       9.504   1.884  -4.655  0.00  0.00     0.338 A 
ATOM     14  O   LIG d   1      10.532   2.324  -4.170  0.00  0.00    -0.245 OA
ATOM     15  O   LIG d   1       9.354   1.932  -5.983  0.00  0.00    -0.422 OA
ATOM     16  H   LIG d   1       5.259  -0.016  -5.810  0.00  0.00     0.063 H 
ATOM     17  H   LIG d   1       6.121  -0.774 -10.451  0.00  0.00     0.091 H 
ATOM     18  H   LIG d   1       5.690   0.565 -11.548  0.00  0.00     0.091 H 
ATOM     19  H   LIG d   1       3.800   0.241  -7.830  0.00  0.00     0.051 H 
ATOM     20  H   LIG d   1       4.716  -1.156  -8.445  0.00  0.00     0.051 H 
ATOM     21  H   LIG d   1       8.698   1.332  -2.729  0.00  0.00     0.070 H 
ENDROOT
BRANCH   9  22
ATOM     22  C   LIG d   1       3.492  -0.145 -10.460  0.00  0.00     0.034 A 
ATOM     23  C   LIG d   1       3.670  -0.601 -11.759  0.00  0.00    -0.021 A 
ATOM     24  C   LIG d   1       2.618  -1.197 -12.431  0.00  0.00     0.061 A 
ATOM     25  H   LIG d   1       4.628  -0.491 -12.245  0.00  0.00     0.065 H 
ATOM     26  C   LIG d   1       1.389  -1.340 -11.808  0.00  0.00     0.059 A 
ATOM     27 CL   LIG d   1       2.840  -1.775 -14.053  0.00  0.00    -0.082 Cl
ATOM     28  C   LIG d   1       1.211  -0.886 -10.513  0.00  0.00    -0.040 A 
ATOM     29 CL   LIG d   1       0.070  -2.088 -12.653  0.00  0.00    -0.082 Cl
ATOM     30  C   LIG d   1       2.258  -0.289  -9.838  0.00  0.00    -0.039 A 
ATOM     31  H   LIG d   1       0.252  -0.998 -10.029  0.00  0.00     0.063 H 
ATOM     32  H   LIG d   1       2.118   0.065  -8.827  0.00  0.00     0.064 H 
ENDBRANCH   9  22
BRANCH   1  33
ATOM     33  C   LIG d   1       9.185   2.104  -8.795  0.00  0.00    -0.033 C 
ATOM     34  H   LIG d   1       9.439   3.095  -8.420  0.00  0.00     0.028 H 
ATOM     35  H   LIG d   1      10.065   1.463  -8.752  0.00  0.00     0.028 H 
ATOM     36  H   LIG d   1       8.843   2.183  -9.827  0.00  0.00     0.028 H 
ENDBRANCH   1  33
BRANCH  11  37
ATOM     37  C   LIG d   1       6.306   0.272  -3.465  0.00  0.00    -0.017 A 
ATOM     38  C   LIG d   1       6.155  -1.112  -3.369  0.00  0.00    -0.054 A 
ATOM     39  C   LIG d   1       5.170  -1.641  -2.560  0.00  0.00    -0.061 A 
ATOM     40  H   LIG d   1       6.807  -1.767  -3.926  0.00  0.00     0.062 H 
ATOM     41  C   LIG d   1       4.333  -0.803  -1.846  0.00  0.00    -0.062 A 
ATOM     42  H   LIG d   1       5.051  -2.711  -2.485  0.00  0.00     0.062 H 
ATOM     43  C   LIG d   1       4.477   0.570  -1.936  0.00  0.00    -0.061 A 
ATOM     44  H   LIG d   1       3.563  -1.221  -1.214  0.00  0.00     0.062 H 
ATOM     45  C   LIG d   1       5.462   1.113  -2.736  0.00  0.00    -0.054 A 
ATOM     46  H   LIG d   1       3.821   1.220  -1.375  0.00  0.00     0.062 H 
ATOM     47  H   LIG d   1       5.578   2.184  -2.802  0.00  0.00     0.062 H 
ENDBRANCH  11  37
TORSDOF 3
ENDMDL
MODEL 2
REMARK VINA RESULT:      -7.6      6.186      8.503
REMARK  3 active torsions:
REMARK  status: ('A' for Active; 'I' for Inactive)
REMARK    1  A    between atoms: C_1  and  C_2 
REMARK    2  A    between atoms: N_10  and  C_12 
REMARK    3  A    between atoms: C_20  and  C_25 
ROOT
ATOM      1  C   LIG d   1       9.957  -0.752  -5.431  0.00  0.00     0.035 A 
ATOM      2  C   LIG d   1       8.850  -1.584  -5.347  0.00  0.00     0.146 A 
ATOM      3  C   LIG d   1       7.667  -1.089  -4.771  0.00  0.00     0.026 A 
ATOM      4  C   LIG d   1       7.613   0.222  -4.295  0.00  0.00    -0.042 A 
ATOM      5  C   LIG d   1       8.713   1.030  -4.386  0.00  0.00     0.013 A 
ATOM      6  C   LIG d   1       9.890   0.548  -4.952  0.00  0.00     0.134 A 
ATOM      7  O   LIG d   1      10.991   1.340  -5.043  0.00  0.00    -0.473 OA
ATOM      8  C   LIG d   1      10.795   2.748  -4.887  0.00  0.00     0.157 C 
ATOM      9  N   LIG d   1       9.986   2.979  -3.679  0.00  0.00    -0.293 NA
ATOM     10  C   LIG d   1       8.630   2.443  -3.867  0.00  0.00     0.044 C 
ATOM     11  C   LIG d   1       6.493  -1.975  -4.683  0.00  0.00    -0.000 A 
ATOM     12  C   LIG d   1       6.626  -3.257  -5.179  0.00  0.00     0.031 A 
ATOM     13  C   LIG d   1       7.851  -3.656  -5.736  0.00  0.00     0.338 A 
ATOM     14  O   LIG d   1       7.952  -4.790  -6.169  0.00  0.00    -0.245 OA
ATOM     15  O   LIG d   1       8.913  -2.847  -5.811  0.00  0.00    -0.422 OA
ATOM     16  H   LIG d   1       6.702   0.598  -3.854  0.00  0.00     0.063 H 
ATOM     17  H   LIG d   1      10.273   3.143  -5.758  0.00  0.00     0.091 H 
ATOM     18  H   LIG d   1      11.761   3.242  -4.780  0.00  0.00     0.091 H 
ATOM     19  H   LIG d   1       8.103   2.450  -2.913  0.00  0.00     0.051 H 
ATOM     20  H   LIG d   1       8.092   3.063  -4.583  0.00  0.00     0.051 H 
ATOM     21  H   LIG d   1       5.795  -3.947  -5.139  0.00  0.00     0.070 H 
ENDROOT
BRANCH   9  22
ATOM     22  C   LIG d   1       9.948   4.337  -3.354  0.00  0.00     0.034 A 
ATOM     23  C   LIG d   1      10.317   4.758  -2.084  0.00  0.00    -0.021 A 
ATOM     24  C   LIG d   1      10.277   6.103  -1.764  0.00  0.00     0.061 A 
ATOM     25  H   LIG d   1      10.634   4.036  -1.345  0.00  0.00     0.065 H 
ATOM     26  C   LIG d   1       9.871   7.028  -2.711  0.00  0.00     0.059 A 
ATOM     27 CL   LIG d   1      10.746   6.632  -0.178  0.00  0.00    -0.082 Cl
ATOM     28  C   LIG d   1       9.504   6.611  -3.978  0.00  0.00    -0.040 A 
ATOM     29 CL   LIG d   1       9.822   8.716  -2.307  0.00  0.00    -0.082 Cl
ATOM     30  C   LIG d   1       9.541   5.268  -4.301  0.00  0.00    -0.039 A 
ATOM     31  H   LIG d   1       9.187   7.334  -4.714  0.00  0.00     0.063 H 
ATOM     32  H   LIG d   1       9.254   4.943  -5.290  0.00  0.00     0.064 H 
ENDBRANCH   9  22
BRANCH   1  33
ATOM     33  C   LIG d   1      11.236  -1.262  -6.044  0.00  0.00    -0.033 C 
ATOM     34  H   LIG d   1      11.257  -2.350  -5.988  0.00  0.00     0.028 H 
ATOM     35  H   LIG d   1      11.288  -0.951  -7.087  0.00  0.00     0.028 H 
ATOM     36  H   LIG d   1      12.088  -0.854  -5.500  0.00  0.00     0.028 H 
ENDBRANCH   1  33
BRANCH  11  37
ATOM     37  C   LIG d   1       5.222  -1.508  -4.086  0.00  0.00    -0.017 A 
ATOM     38  C   LIG d   1       4.340  -0.729  -4.837  0.00  0.00    -0.054 A 
ATOM     39  C   LIG d   1       3.157  -0.298  -4.275  0.00  0.00    -0.061 A 
ATOM     40  H   LIG d   1       4.584  -0.465  -5.855  0.00  0.00     0.062 H 
ATOM     41  C   LIG d   1       2.843  -0.634  -2.971  0.00  0.00    -0.062 A 
ATOM     42  H   LIG d   1       2.474   0.306  -4.855  0.00  0.00     0.062 H 
ATOM     43  C   LIG d   1       3.712  -1.406  -2.221  0.00  0.00    -0.061 A 
ATOM     44  H   LIG d   1       1.915  -0.294  -2.536  0.00  0.00     0.062 H 
ATOM     45  C   LIG d   1       4.897  -1.850  -2.773  0.00  0.00    -0.054 A 
ATOM     46  H   LIG d   1       3.461  -1.666  -1.203  0.00  0.00     0.062 H 
ATOM     47  H   LIG d   1       5.573  -2.456  -2.188  0.00  0.00     0.062 H 
ENDBRANCH  11  37
TORSDOF 3
ENDMDL
MODEL 3
REMARK VINA RESULT:      -7.6      4.699      7.092
REMARK  3 active torsions:
REMARK  status: ('A' for Active; 'I' for Inactive)
REMARK    1  A    between atoms: C_1  and  C_2 
REMARK    2  A    between atoms: N_10  and  C_12 
REMARK    3  A    between atoms: C_20  and  C_25 
ROOT
ATOM      1  C   LIG d   1       9.961   3.513  -6.657  0.00  0.00     0.035 A 
ATOM      2  C   LIG d   1      10.696   4.487  -5.995  0.00  0.00     0.146 A 
ATOM      3  C   LIG d   1      10.520   4.649  -4.611  0.00  0.00     0.026 A 
ATOM      4  C   LIG d   1       9.621   3.839  -3.916  0.00  0.00    -0.042 A 
ATOM      5  C   LIG d   1       8.906   2.883  -4.583  0.00  0.00     0.013 A 
ATOM      6  C   LIG d   1       9.070   2.715  -5.956  0.00  0.00     0.134 A 
ATOM      7  O   LIG d   1       8.360   1.772  -6.630  0.00  0.00    -0.473 OA
ATOM      8  C   LIG d   1       7.741   0.745  -5.852  0.00  0.00     0.157 C 
ATOM      9  N   LIG d   1       7.004   1.373  -4.743  0.00  0.00    -0.293 NA
ATOM     10  C   LIG d   1       7.941   2.016  -3.812  0.00  0.00     0.044 C 
ATOM     11  C   LIG d   1      11.301   5.685  -3.911  0.00  0.00    -0.000 A 
ATOM     12  C   LIG d   1      12.172   6.445  -4.668  0.00  0.00     0.031 A 
ATOM     13  C   LIG d   1      12.275   6.204  -6.047  0.00  0.00     0.338 A 
ATOM     14  O   LIG d   1      13.047   6.882  -6.701  0.00  0.00    -0.245 OA
ATOM     15  O   LIG d   1      11.562   5.263  -6.675  0.00  0.00    -0.422 OA
ATOM     16  H   LIG d   1       9.490   3.967  -2.852  0.00  0.00     0.063 H 
ATOM     17  H   LIG d   1       8.504   0.078  -5.452  0.00  0.00     0.091 H 
ATOM     18  H   LIG d   1       7.049   0.179  -6.477  0.00  0.00     0.091 H 
ATOM     19  H   LIG d   1       7.386   2.632  -3.105  0.00  0.00     0.051 H 
ATOM     20  H   LIG d   1       8.495   1.251  -3.269  0.00  0.00     0.051 H 
ATOM     21  H   LIG d   1      12.768   7.216  -4.203  0.00  0.00     0.070 H 
ENDROOT
BRANCH   9  22
ATOM     22  C   LIG d   1       6.202   0.440  -4.082  0.00  0.00     0.034 A 
ATOM     23  C   LIG d   1       6.031  -0.831  -4.615  0.00  0.00    -0.021 A 
ATOM     24  C   LIG d   1       5.235  -1.753  -3.959  0.00  0.00     0.061 A 
ATOM     25  H   LIG d   1       6.518  -1.100  -5.541  0.00  0.00     0.065 H 
ATOM     26  C   LIG d   1       4.611  -1.408  -2.772  0.00  0.00     0.059 A 
ATOM     27 CL   LIG d   1       5.026  -3.344  -4.620  0.00  0.00    -0.082 Cl
ATOM     28  C   LIG d   1       4.781  -0.143  -2.239  0.00  0.00    -0.040 A 
ATOM     29 CL   LIG d   1       3.613  -2.567  -1.950  0.00  0.00    -0.082 Cl
ATOM     30  C   LIG d   1       5.574   0.781  -2.891  0.00  0.00    -0.039 A 
ATOM     31  H   LIG d   1       4.293   0.123  -1.313  0.00  0.00     0.063 H 
ATOM     32  H   LIG d   1       5.706   1.769  -2.475  0.00  0.00     0.064 H 
ENDBRANCH   9  22
BRANCH   1  33
ATOM     33  C   LIG d   1      10.133   3.322  -8.142  0.00  0.00    -0.033 C 
ATOM     34  H   LIG d   1      10.097   2.259  -8.378  0.00  0.00     0.028 H 
ATOM     35  H   LIG d   1       9.331   3.838  -8.670  0.00  0.00     0.028 H 
ATOM     36  H   LIG d   1      11.094   3.731  -8.453  0.00  0.00     0.028 H 
ENDBRANCH   1  33
BRANCH  11  37
ATOM     37  C   LIG d   1      11.157   5.901  -2.454  0.00  0.00    -0.017 A 
ATOM     38  C   LIG d   1      10.250   6.845  -1.972  0.00  0.00    -0.054 A 
ATOM     39  C   LIG d   1      10.120   7.041  -0.613  0.00  0.00    -0.061 A 
ATOM     40  H   LIG d   1       9.651   7.421  -2.662  0.00  0.00     0.062 H 
ATOM     41  C   LIG d   1      10.886   6.305   0.272  0.00  0.00    -0.062 A 
ATOM     42  H   LIG d   1       9.419   7.772  -0.238  0.00  0.00     0.062 H 
ATOM     43  C   LIG d   1      11.788   5.367  -0.199  0.00  0.00    -0.061 A 
ATOM     44  H   LIG d   1      10.782   6.462   1.336  0.00  0.00     0.062 H 
ATOM     45  C   LIG d   1      11.924   5.156  -1.556  0.00  0.00    -0.054 A 
ATOM     46  H   LIG d   1      12.384   4.795   0.498  0.00  0.00     0.062 H 
ATOM     47  H   LIG d   1      12.624   4.420  -1.922  0.00  0.00     0.062 H 
ENDBRANCH  11  37
TORSDOF 3
ENDMDL
MODEL 4
REMARK VINA RESULT:      -7.2      3.194      3.695
REMARK  3 active torsions:
REMARK  status: ('A' for Active; 'I' for Inactive)
REMARK    1  A    between atoms: C_1  and  C_2 
REMARK    2  A    between atoms: N_10  and  C_12 
REMARK    3  A    between atoms: C_20  and  C_25 
ROOT
ATOM      1  C   LIG d   1       7.258  -4.136  -6.936  0.00  0.00     0.035 A 
ATOM      2  C   LIG d   1       7.469  -3.662  -5.649  0.00  0.00     0.146 A 
ATOM      3  C   LIG d   1       6.593  -2.695  -5.127  0.00  0.00     0.026 A 
ATOM      4  C   LIG d   1       5.527  -2.224  -5.895  0.00  0.00    -0.042 A 
ATOM      5  C   LIG d   1       5.333  -2.703  -7.162  0.00  0.00     0.013 A 
ATOM      6  C   LIG d   1       6.196  -3.659  -7.690  0.00  0.00     0.134 A 
ATOM      7  O   LIG d   1       6.016  -4.137  -8.949  0.00  0.00    -0.473 OA
ATOM      8  C   LIG d   1       4.740  -3.913  -9.554  0.00  0.00     0.157 C 
ATOM      9  N   LIG d   1       4.385  -2.494  -9.393  0.00  0.00    -0.293 NA
ATOM     10  C   LIG d   1       4.172  -2.181  -7.973  0.00  0.00     0.044 C 
ATOM     11  C   LIG d   1       6.819  -2.193  -3.760  0.00  0.00    -0.000 A 
ATOM     12  C   LIG d   1       7.894  -2.710  -3.063  0.00  0.00     0.031 A 
ATOM     13  C   LIG d   1       8.711  -3.674  -3.674  0.00  0.00     0.338 A 
ATOM     14  O   LIG d   1       9.655  -4.121  -3.046  0.00  0.00    -0.245 OA
ATOM     15  O   LIG d   1       8.500  -4.124  -4.915  0.00  0.00    -0.422 OA
ATOM     16  H   LIG d   1       4.856  -1.482  -5.490  0.00  0.00     0.063 H 
ATOM     17  H   LIG d   1       3.990  -4.535  -9.065  0.00  0.00     0.091 H 
ATOM     18  H   LIG d   1       4.789  -4.161 -10.615  0.00  0.00     0.091 H 
ATOM     19  H   LIG d   1       4.097  -1.102  -7.846  0.00  0.00     0.051 H 
ATOM     20  H   LIG d   1       3.251  -2.652  -7.633  0.00  0.00     0.051 H 
ATOM     21  H   LIG d   1       8.104  -2.376  -2.057  0.00  0.00     0.070 H 
ENDROOT
BRANCH   9  22
ATOM     22  C   LIG d   1       3.258  -2.170 -10.152  0.00  0.00     0.034 A 
ATOM     23  C   LIG d   1       2.985  -2.864 -11.323  0.00  0.00    -0.021 A 
ATOM     24  C   LIG d   1       1.869  -2.541 -12.073  0.00  0.00     0.061 A 
ATOM     25  H   LIG d   1       3.645  -3.655 -11.649  0.00  0.00     0.065 H 
ATOM     26  C   LIG d   1       1.024  -1.527 -11.655  0.00  0.00     0.059 A 
ATOM     27 CL   LIG d   1       1.523  -3.413 -13.533  0.00  0.00    -0.082 Cl
ATOM     28  C   LIG d   1       1.293  -0.835 -10.487  0.00  0.00    -0.040 A 
ATOM     29 CL   LIG d   1      -0.377  -1.123 -12.597  0.00  0.00    -0.082 Cl
ATOM     30  C   LIG d   1       2.407  -1.154  -9.736  0.00  0.00    -0.039 A 
ATOM     31  H   LIG d   1       0.632  -0.045 -10.164  0.00  0.00     0.063 H 
ATOM     32  H   LIG d   1       2.617  -0.613  -8.825  0.00  0.00     0.064 H 
ENDBRANCH   9  22
BRANCH   1  33
ATOM     33  C   LIG d   1       8.186  -5.172  -7.517  0.00  0.00    -0.033 C 
ATOM     34  H   LIG d   1       7.680  -6.137  -7.547  0.00  0.00     0.028 H 
ATOM     35  H   LIG d   1       8.471  -4.879  -8.527  0.00  0.00     0.028 H 
ATOM     36  H   LIG d   1       9.079  -5.250  -6.896  0.00  0.00     0.028 H 
ENDBRANCH   1  33
BRANCH  11  37
ATOM     37  C   LIG d   1       5.930  -1.175  -3.159  0.00  0.00    -0.017 A 
ATOM     38  C   LIG d   1       4.765  -1.566  -2.496  0.00  0.00    -0.054 A 
ATOM     39  C   LIG d   1       3.940  -0.612  -1.937  0.00  0.00    -0.061 A 
ATOM     40  H   LIG d   1       4.511  -2.613  -2.422  0.00  0.00     0.062 H 
ATOM     41  C   LIG d   1       4.264   0.729  -2.032  0.00  0.00    -0.062 A 
ATOM     42  H   LIG d   1       3.039  -0.913  -1.425  0.00  0.00     0.062 H 
ATOM     43  C   LIG d   1       5.417   1.124  -2.687  0.00  0.00    -0.061 A 
ATOM     44  H   LIG d   1       3.615   1.472  -1.593  0.00  0.00     0.062 H 
ATOM     45  C   LIG d   1       6.255   0.180  -3.246  0.00  0.00    -0.054 A 
ATOM     46  H   LIG d   1       5.665   2.173  -2.758  0.00  0.00     0.062 H 
ATOM     47  H   LIG d   1       7.157   0.488  -3.753  0.00  0.00     0.062 H 
ENDBRANCH  11  37
TORSDOF 3
ENDMDL
MODEL 5
REMARK VINA RESULT:      -7.2      5.566      7.404
REMARK  3 active torsions:
REMARK  status: ('A' for Active; 'I' for Inactive)
REMARK    1  A    between atoms: C_1  and  C_2 
REMARK    2  A    between atoms: N_10  and  C_12 
REMARK    3  A    between atoms: C_20  and  C_25 
ROOT
ATOM      1  C   LIG d   1      10.055  -0.245  -5.512  0.00  0.00     0.035 A 
ATOM      2  C   LIG d   1       9.006  -0.957  -4.948  0.00  0.00     0.146 A 
ATOM      3  C   LIG d   1       7.851  -0.266  -4.545  0.00  0.00     0.026 A 
ATOM      4  C   LIG d   1       7.764   1.117  -4.714  0.00  0.00    -0.042 A 
ATOM      5  C   LIG d   1       8.806   1.804  -5.273  0.00  0.00     0.013 A 
ATOM      6  C   LIG d   1       9.956   1.130  -5.674  0.00  0.00     0.134 A 
ATOM      7  O   LIG d   1      11.000   1.803  -6.226  0.00  0.00    -0.473 OA
ATOM      8  C   LIG d   1      10.740   3.124  -6.708  0.00  0.00     0.157 C 
ATOM      9  N   LIG d   1      10.024   3.874  -5.664  0.00  0.00    -0.293 NA
ATOM     10  C   LIG d   1       8.689   3.298  -5.449  0.00  0.00     0.044 C 
ATOM     11  C   LIG d   1       6.740  -1.025  -3.945  0.00  0.00    -0.000 A 
ATOM     12  C   LIG d   1       6.901  -2.391  -3.814  0.00  0.00     0.031 A 
ATOM     13  C   LIG d   1       8.095  -2.988  -4.248  0.00  0.00     0.338 A 
ATOM     14  O   LIG d   1       8.222  -4.194  -4.126  0.00  0.00    -0.245 OA
ATOM     15  O   LIG d   1       9.100  -2.292  -4.790  0.00  0.00    -0.422 OA
ATOM     16  H   LIG d   1       6.875   1.644  -4.404  0.00  0.00     0.063 H 
ATOM     17  H   LIG d   1      10.124   3.070  -7.606  0.00  0.00     0.091 H 
ATOM     18  H   LIG d   1      11.682   3.622  -6.936  0.00  0.00     0.091 H 
ATOM     19  H   LIG d   1       8.244   3.735  -4.555  0.00  0.00     0.051 H 
ATOM     20  H   LIG d   1       8.059   3.514  -6.311  0.00  0.00     0.051 H 
ATOM     21  H   LIG d   1       6.116  -2.995  -3.381  0.00  0.00     0.070 H 
ENDROOT
BRANCH   9  22
ATOM     22  C   LIG d   1       9.938   5.230  -5.990  0.00  0.00     0.034 A 
ATOM     23  C   LIG d   1      10.380   5.675  -7.229  0.00  0.00    -0.021 A 
ATOM     24  C   LIG d   1      10.295   7.018  -7.550  0.00  0.00     0.061 A 
ATOM     25  H   LIG d   1      10.791   4.975  -7.941  0.00  0.00     0.065 H 
ATOM     26  C   LIG d   1       9.768   7.916  -6.636  0.00  0.00     0.059 A 
ATOM     27 CL   LIG d   1      10.840   7.576  -9.100  0.00  0.00    -0.082 Cl
ATOM     28  C   LIG d   1       9.326   7.473  -5.402  0.00  0.00    -0.040 A 
ATOM     29 CL   LIG d   1       9.662   9.601  -7.041  0.00  0.00    -0.082 Cl
ATOM     30  C   LIG d   1       9.410   6.134  -5.077  0.00  0.00    -0.039 A 
ATOM     31  H   LIG d   1       8.916   8.176  -4.692  0.00  0.00     0.063 H 
ATOM     32  H   LIG d   1       9.065   5.789  -4.113  0.00  0.00     0.064 H 
ENDBRANCH   9  22
BRANCH   1  33
ATOM     33  C   LIG d   1      11.303  -0.965  -5.951  0.00  0.00    -0.033 C 
ATOM     34  H   LIG d   1      11.098  -2.032  -6.032  0.00  0.00     0.028 H 
ATOM     35  H   LIG d   1      11.622  -0.582  -6.921  0.00  0.00     0.028 H 
ATOM     36  H   LIG d   1      12.094  -0.802  -5.219  0.00  0.00     0.028 H 
ENDBRANCH   1  33
BRANCH  11  37
ATOM     37  C   LIG d   1       5.500  -0.351  -3.502  0.00  0.00    -0.017 A 
ATOM     38  C   LIG d   1       5.471   0.335  -2.287  0.00  0.00    -0.054 A 
ATOM     39  C   LIG d   1       4.312   0.962  -1.880  0.00  0.00    -0.061 A 
ATOM     40  H   LIG d   1       6.354   0.373  -1.667  0.00  0.00     0.062 H 
ATOM     41  C   LIG d   1       3.180   0.914  -2.673  0.00  0.00    -0.062 A 
ATOM     42  H   LIG d   1       4.288   1.492  -0.939  0.00  0.00     0.062 H 
ATOM     43  C   LIG d   1       3.201   0.237  -3.879  0.00  0.00    -0.061 A 
ATOM     44  H   LIG d   1       2.275   1.407  -2.350  0.00  0.00     0.062 H 
ATOM     45  C   LIG d   1       4.356  -0.391  -4.301  0.00  0.00    -0.054 A 
ATOM     46  H   LIG d   1       2.314   0.202  -4.494  0.00  0.00     0.062 H 
ATOM     47  H   LIG d   1       4.373  -0.915  -5.245  0.00  0.00     0.062 H 
ENDBRANCH  11  37
TORSDOF 3
ENDMDL
MODEL 6
REMARK VINA RESULT:      -7.1      5.347      8.271
REMARK  3 active torsions:
REMARK  status: ('A' for Active; 'I' for Inactive)
REMARK    1  A    between atoms: C_1  and  C_2 
REMARK    2  A    between atoms: N_10  and  C_12 
REMARK    3  A    between atoms: C_20  and  C_25 
ROOT
ATOM      1  C   LIG d   1       4.369  -1.194  -6.545  0.00  0.00     0.035 A 
ATOM      2  C   LIG d   1       3.909  -0.439  -7.615  0.00  0.00     0.146 A 
ATOM      3  C   LIG d   1       3.469  -1.099  -8.775  0.00  0.00     0.026 A 
ATOM      4  C   LIG d   1       3.496  -2.493  -8.844  0.00  0.00    -0.042 A 
ATOM      5  C   LIG d   1       3.952  -3.222  -7.780  0.00  0.00     0.013 A 
ATOM      6  C   LIG d   1       4.392  -2.578  -6.627  0.00  0.00     0.134 A 
ATOM      7  O   LIG d   1       4.853  -3.292  -5.566  0.00  0.00    -0.473 OA
ATOM      8  C   LIG d   1       4.532  -4.685  -5.530  0.00  0.00     0.157 C 
ATOM      9  N   LIG d   1       4.855  -5.276  -6.838  0.00  0.00    -0.293 NA
ATOM     10  C   LIG d   1       3.970  -4.727  -7.876  0.00  0.00     0.044 C 
ATOM     11  C   LIG d   1       2.981  -0.296  -9.910  0.00  0.00    -0.000 A 
ATOM     12  C   LIG d   1       2.984   1.078  -9.763  0.00  0.00     0.031 A 
ATOM     13  C   LIG d   1       3.443   1.641  -8.563  0.00  0.00     0.338 A 
ATOM     14  O   LIG d   1       3.439   2.854  -8.449  0.00  0.00    -0.245 OA
ATOM     15  O   LIG d   1       3.886   0.906  -7.537  0.00  0.00    -0.422 OA
ATOM     16  H   LIG d   1       3.157  -2.996  -9.737  0.00  0.00     0.063 H 
ATOM     17  H   LIG d   1       3.468  -4.810  -5.325  0.00  0.00     0.091 H 
ATOM     18  H   LIG d   1       5.117  -5.175  -4.752  0.00  0.00     0.091 H 
ATOM     19  H   LIG d   1       4.335  -5.024  -8.859  0.00  0.00     0.051 H 
ATOM     20  H   LIG d   1       2.961  -5.112  -7.732  0.00  0.00     0.051 H 
ATOM     21  H   LIG d   1       2.635   1.713 -10.565  0.00  0.00     0.070 H 
ENDROOT
BRANCH   9  22
ATOM     22  C   LIG d   1       4.769  -6.670  -6.793  0.00  0.00     0.034 A 
ATOM     23  C   LIG d   1       5.037  -7.344  -5.610  0.00  0.00    -0.021 A 
ATOM     24  C   LIG d   1       4.954  -8.724  -5.567  0.00  0.00     0.061 A 
ATOM     25  H   LIG d   1       5.312  -6.792  -4.722  0.00  0.00     0.065 H 
ATOM     26  C   LIG d   1       4.602  -9.432  -6.705  0.00  0.00     0.059 A 
ATOM     27 CL   LIG d   1       5.281  -9.568  -4.087  0.00  0.00    -0.082 Cl
ATOM     28  C   LIG d   1       4.333  -8.761  -7.885  0.00  0.00    -0.040 A 
ATOM     29 CL   LIG d   1       4.497 -11.163  -6.650  0.00  0.00    -0.082 Cl
ATOM     30  C   LIG d   1       4.417  -7.383  -7.932  0.00  0.00    -0.039 A 
ATOM     31  H   LIG d   1       4.059  -9.315  -8.771  0.00  0.00     0.063 H 
ATOM     32  H   LIG d   1       4.208  -6.860  -8.854  0.00  0.00     0.064 H 
ENDBRANCH   9  22
BRANCH   1  33
ATOM     33  C   LIG d   1       4.846  -0.507  -5.291  0.00  0.00    -0.033 C 
ATOM     34  H   LIG d   1       5.684  -1.061  -4.870  0.00  0.00     0.028 H 
ATOM     35  H   LIG d   1       5.166   0.507  -5.532  0.00  0.00     0.028 H 
ATOM     36  H   LIG d   1       4.033  -0.469  -4.565  0.00  0.00     0.028 H 
ENDBRANCH   1  33
BRANCH  11  37
ATOM     37  C   LIG d   1       2.507  -0.936 -11.156  0.00  0.00    -0.017 A 
ATOM     38  C   LIG d   1       3.404  -1.209 -12.189  0.00  0.00    -0.054 A 
ATOM     39  C   LIG d   1       2.956  -1.807 -13.349  0.00  0.00    -0.061 A 
ATOM     40  H   LIG d   1       4.447  -0.952 -12.081  0.00  0.00     0.062 H 
ATOM     41  C   LIG d   1       1.620  -2.136 -13.489  0.00  0.00    -0.062 A 
ATOM     42  H   LIG d   1       3.649  -2.018 -14.149  0.00  0.00     0.062 H 
ATOM     43  C   LIG d   1       0.724  -1.869 -12.469  0.00  0.00    -0.061 A 
ATOM     44  H   LIG d   1       1.273  -2.604 -14.399  0.00  0.00     0.062 H 
ATOM     45  C   LIG d   1       1.160  -1.277 -11.301  0.00  0.00    -0.054 A 
ATOM     46  H   LIG d   1      -0.318  -2.129 -12.584  0.00  0.00     0.062 H 
ATOM     47  H   LIG d   1       0.462  -1.073 -10.503  0.00  0.00     0.062 H 
ENDBRANCH  11  37
TORSDOF 3
ENDMDL
MODEL 7
REMARK VINA RESULT:      -7.0      6.612      9.632
REMARK  3 active torsions:
REMARK  status: ('A' for Active; 'I' for Inactive)
REMARK    1  A    between atoms: C_1  and  C_2 
REMARK    2  A    between atoms: N_10  and  C_12 
REMARK    3  A    between atoms: C_20  and  C_25 
ROOT
ATOM      1  C   LIG d   1       1.294  -5.261 -10.768  0.00  0.00     0.035 A 
ATOM      2  C   LIG d   1       1.070  -3.960 -11.197  0.00  0.00     0.146 A 
ATOM      3  C   LIG d   1       1.839  -2.920 -10.648  0.00  0.00     0.026 A 
ATOM      4  C   LIG d   1       2.813  -3.197  -9.688  0.00  0.00    -0.042 A 
ATOM      5  C   LIG d   1       3.022  -4.485  -9.277  0.00  0.00     0.013 A 
ATOM      6  C   LIG d   1       2.264  -5.522  -9.812  0.00  0.00     0.134 A 
ATOM      7  O   LIG d   1       2.460  -6.805  -9.406  0.00  0.00    -0.473 OA
ATOM      8  C   LIG d   1       3.678  -7.091  -8.715  0.00  0.00     0.157 C 
ATOM      9  N   LIG d   1       3.862  -6.090  -7.652  0.00  0.00    -0.293 NA
ATOM     10  C   LIG d   1       4.082  -4.760  -8.239  0.00  0.00     0.044 C 
ATOM     11  C   LIG d   1       1.598  -1.540 -11.105  0.00  0.00    -0.000 A 
ATOM     12  C   LIG d   1       0.618  -1.348 -12.060  0.00  0.00     0.031 A 
ATOM     13  C   LIG d   1      -0.095  -2.455 -12.546  0.00  0.00     0.338 A 
ATOM     14  O   LIG d   1      -0.956  -2.269 -13.388  0.00  0.00    -0.245 OA
ATOM     15  O   LIG d   1       0.128  -3.704 -12.125  0.00  0.00    -0.422 OA
ATOM     16  H   LIG d   1       3.402  -2.394  -9.269  0.00  0.00     0.063 H 
ATOM     17  H   LIG d   1       4.514  -7.041  -9.412  0.00  0.00     0.091 H 
ATOM     18  H   LIG d   1       3.624  -8.087  -8.274  0.00  0.00     0.091 H 
ATOM     19  H   LIG d   1       4.030  -4.004  -7.456  0.00  0.00     0.051 H 
ATOM     20  H   LIG d   1       5.065  -4.730  -8.708  0.00  0.00     0.051 H 
ATOM     21  H   LIG d   1       0.403  -0.356 -12.429  0.00  0.00     0.070 H 
ENDROOT
BRANCH   9  22
ATOM     22  C   LIG d   1       4.915  -6.444  -6.806  0.00  0.00     0.034 A 
ATOM     23  C   LIG d   1       4.841  -7.610  -6.055  0.00  0.00    -0.021 A 
ATOM     24  C   LIG d   1       5.885  -7.959  -5.217  0.00  0.00     0.061 A 
ATOM     25  H   LIG d   1       3.969  -8.243  -6.124  0.00  0.00     0.065 H 
ATOM     26  C   LIG d   1       7.003  -7.146  -5.130  0.00  0.00     0.059 A 
ATOM     27 CL   LIG d   1       5.797  -9.419  -4.283  0.00  0.00    -0.082 Cl
ATOM     28  C   LIG d   1       7.079  -5.985  -5.878  0.00  0.00    -0.040 A 
ATOM     29 CL   LIG d   1       8.313  -7.586  -4.078  0.00  0.00    -0.082 Cl
ATOM     30  C   LIG d   1       6.039  -5.632  -6.715  0.00  0.00    -0.039 A 
ATOM     31  H   LIG d   1       7.953  -5.354  -5.808  0.00  0.00     0.063 H 
ATOM     32  H   LIG d   1       6.099  -4.726  -7.299  0.00  0.00     0.064 H 
ENDBRANCH   9  22
BRANCH   1  33
ATOM     33  C   LIG d   1       0.480  -6.393 -11.342  0.00  0.00    -0.033 C 
ATOM     34  H   LIG d   1      -0.404  -5.990 -11.834  0.00  0.00     0.028 H 
ATOM     35  H   LIG d   1       1.082  -6.941 -12.067  0.00  0.00     0.028 H 
ATOM     36  H   LIG d   1       0.176  -7.065 -10.540  0.00  0.00     0.028 H 
ENDBRANCH   1  33
BRANCH  11  37
ATOM     37  C   LIG d   1       2.377  -0.405 -10.562  0.00  0.00    -0.017 A 
ATOM     38  C   LIG d   1       2.028   0.161  -9.335  0.00  0.00    -0.054 A 
ATOM     39  C   LIG d   1       2.759   1.219  -8.835  0.00  0.00    -0.061 A 
ATOM     40  H   LIG d   1       1.188  -0.228  -8.780  0.00  0.00     0.062 H 
ATOM     41  C   LIG d   1       3.835   1.719  -9.545  0.00  0.00    -0.062 A 
ATOM     42  H   LIG d   1       2.489   1.658  -7.886  0.00  0.00     0.062 H 
ATOM     43  C   LIG d   1       4.187   1.162 -10.762  0.00  0.00    -0.061 A 
ATOM     44  H   LIG d   1       4.404   2.547  -9.149  0.00  0.00     0.062 H 
ATOM     45  C   LIG d   1       3.468   0.100 -11.272  0.00  0.00    -0.054 A 
ATOM     46  H   LIG d   1       5.028   1.557 -11.312  0.00  0.00     0.062 H 
ATOM     47  H   LIG d   1       3.746  -0.337 -12.220  0.00  0.00     0.062 H 
ENDBRANCH  11  37
TORSDOF 3
ENDMDL
MODEL 8
REMARK VINA RESULT:      -6.9      6.269      7.295
REMARK  3 active torsions:
REMARK  status: ('A' for Active; 'I' for Inactive)
REMARK    1  A    between atoms: C_1  and  C_2 
REMARK    2  A    between atoms: N_10  and  C_12 
REMARK    3  A    between atoms: C_20  and  C_25 
ROOT
ATOM      1  C   LIG d   1       9.039  -3.973  -5.820  0.00  0.00     0.035 A 
ATOM      2  C   LIG d   1       8.580  -2.739  -5.382  0.00  0.00     0.146 A 
ATOM      3  C   LIG d   1       7.255  -2.625  -4.928  0.00  0.00     0.026 A 
ATOM      4  C   LIG d   1       6.417  -3.742  -4.919  0.00  0.00    -0.042 A 
ATOM      5  C   LIG d   1       6.885  -4.952  -5.353  0.00  0.00     0.013 A 
ATOM      6  C   LIG d   1       8.196  -5.074  -5.807  0.00  0.00     0.134 A 
ATOM      7  O   LIG d   1       8.669  -6.271  -6.246  0.00  0.00    -0.473 OA
ATOM      8  C   LIG d   1       7.923  -7.437  -5.888  0.00  0.00     0.157 C 
ATOM      9  N   LIG d   1       6.504  -7.201  -6.200  0.00  0.00    -0.293 NA
ATOM     10  C   LIG d   1       5.963  -6.145  -5.332  0.00  0.00     0.044 C 
ATOM     11  C   LIG d   1       6.771  -1.313  -4.464  0.00  0.00    -0.000 A 
ATOM     12  C   LIG d   1       7.661  -0.258  -4.502  0.00  0.00     0.031 A 
ATOM     13  C   LIG d   1       8.966  -0.474  -4.973  0.00  0.00     0.338 A 
ATOM     14  O   LIG d   1       9.739   0.467  -4.999  0.00  0.00    -0.245 OA
ATOM     15  O   LIG d   1       9.398  -1.668  -5.393  0.00  0.00    -0.422 OA
ATOM     16  H   LIG d   1       5.400  -3.651  -4.570  0.00  0.00     0.063 H 
ATOM     17  H   LIG d   1       8.036  -7.630  -4.822  0.00  0.00     0.091 H 
ATOM     18  H   LIG d   1       8.286  -8.292  -6.459  0.00  0.00     0.091 H 
ATOM     19  H   LIG d   1       4.978  -5.849  -5.692  0.00  0.00     0.051 H 
ATOM     20  H   LIG d   1       5.879  -6.522  -4.313  0.00  0.00     0.051 H 
ATOM     21  H   LIG d   1       7.357   0.725  -4.173  0.00  0.00     0.070 H 
ENDROOT
BRANCH   9  22
ATOM     22  C   LIG d   1       5.762  -8.379  -6.078  0.00  0.00     0.034 A 
ATOM     23  C   LIG d   1       5.118  -8.674  -4.884  0.00  0.00    -0.021 A 
ATOM     24  C   LIG d   1       4.385  -9.840  -4.766  0.00  0.00     0.061 A 
ATOM     25  H   LIG d   1       5.189  -7.993  -4.048  0.00  0.00     0.065 H 
ATOM     26  C   LIG d   1       4.293 -10.713  -5.838  0.00  0.00     0.059 A 
ATOM     27 CL   LIG d   1       3.572 -10.207  -3.277  0.00  0.00    -0.082 Cl
ATOM     28  C   LIG d   1       4.934 -10.420  -7.029  0.00  0.00    -0.040 A 
ATOM     29 CL   LIG d   1       3.373 -12.177  -5.688  0.00  0.00    -0.082 Cl
ATOM     30  C   LIG d   1       5.668  -9.256  -7.151  0.00  0.00    -0.039 A 
ATOM     31  H   LIG d   1       4.862 -11.102  -7.863  0.00  0.00     0.063 H 
ATOM     32  H   LIG d   1       6.169  -9.028  -8.081  0.00  0.00     0.064 H 
ENDBRANCH   9  22
BRANCH   1  33
ATOM     33  C   LIG d   1      10.456  -4.117  -6.311  0.00  0.00    -0.033 C 
ATOM     34  H   LIG d   1      10.648  -5.159  -6.566  0.00  0.00     0.028 H 
ATOM     35  H   LIG d   1      10.600  -3.495  -7.194  0.00  0.00     0.028 H 
ATOM     36  H   LIG d   1      11.146  -3.802  -5.528  0.00  0.00     0.028 H 
ENDBRANCH   1  33
BRANCH  11  37
ATOM     37  C   LIG d   1       5.385  -1.135  -3.977  0.00  0.00    -0.017 A 
ATOM     38  C   LIG d   1       5.026  -1.586  -2.706  0.00  0.00    -0.054 A 
ATOM     39  C   LIG d   1       3.733  -1.415  -2.257  0.00  0.00    -0.061 A 
ATOM     40  H   LIG d   1       5.759  -2.067  -2.076  0.00  0.00     0.062 H 
ATOM     41  C   LIG d   1       2.793  -0.800  -3.063  0.00  0.00    -0.062 A 
ATOM     42  H   LIG d   1       3.453  -1.764  -1.274  0.00  0.00     0.062 H 
ATOM     43  C   LIG d   1       3.142  -0.350  -4.324  0.00  0.00    -0.061 A 
ATOM     44  H   LIG d   1       1.781  -0.669  -2.707  0.00  0.00     0.062 H 
ATOM     45  C   LIG d   1       4.434  -0.508  -4.783  0.00  0.00    -0.054 A 
ATOM     46  H   LIG d   1       2.403   0.130  -4.949  0.00  0.00     0.062 H 
ATOM     47  H   LIG d   1       4.706  -0.153  -5.766  0.00  0.00     0.062 H 
ENDBRANCH  11  37
TORSDOF 3
ENDMDL
MODEL 9
REMARK VINA RESULT:      -6.7      9.062     11.291
REMARK  3 active torsions:
REMARK  status: ('A' for Active; 'I' for Inactive)
REMARK    1  A    between atoms: C_1  and  C_2 
REMARK    2  A    between atoms: N_10  and  C_12 
REMARK    3  A    between atoms: C_20  and  C_25 
ROOT
ATOM      1  C   LIG d   1       9.700  11.944  -3.124  0.00  0.00     0.035 A 
ATOM      2  C   LIG d   1      10.059  11.403  -1.897  0.00  0.00     0.146 A 
ATOM      3  C   LIG d   1      10.534  10.081  -1.848  0.00  0.00     0.026 A 
ATOM      4  C   LIG d   1      10.643   9.329  -3.019  0.00  0.00    -0.042 A 
ATOM      5  C   LIG d   1      10.287   9.878  -4.220  0.00  0.00     0.013 A 
ATOM      6  C   LIG d   1       9.813  11.185  -4.280  0.00  0.00     0.134 A 
ATOM      7  O   LIG d   1       9.451  11.739  -5.468  0.00  0.00    -0.473 OA
ATOM      8  C   LIG d   1       9.909  11.088  -6.655  0.00  0.00     0.157 C 
ATOM      9  N   LIG d   1       9.615   9.650  -6.548  0.00  0.00    -0.293 NA
ATOM     10  C   LIG d   1      10.417   9.048  -5.473  0.00  0.00     0.044 C 
ATOM     11  C   LIG d   1      10.913   9.509  -0.544  0.00  0.00    -0.000 A 
ATOM     12  C   LIG d   1      10.778  10.318   0.568  0.00  0.00     0.031 A 
ATOM     13  C   LIG d   1      10.293  11.626   0.413  0.00  0.00     0.338 A 
ATOM     14  O   LIG d   1      10.180  12.327   1.404  0.00  0.00    -0.245 OA
ATOM     15  O   LIG d   1       9.950  12.138  -0.773  0.00  0.00    -0.422 OA
ATOM     16  H   LIG d   1      11.009   8.315  -2.976  0.00  0.00     0.063 H 
ATOM     17  H   LIG d   1      10.984  11.235  -6.761  0.00  0.00     0.091 H 
ATOM     18  H   LIG d   1       9.393  11.503  -7.522  0.00  0.00     0.091 H 
ATOM     19  H   LIG d   1      10.060   8.037  -5.277  0.00  0.00     0.051 H 
ATOM     20  H   LIG d   1      11.462   9.011  -5.778  0.00  0.00     0.051 H 
ATOM     21  H   LIG d   1      11.042   9.947   1.548  0.00  0.00     0.070 H 
ENDROOT
BRANCH   9  22
ATOM     22  C   LIG d   1       9.839   9.000  -7.764  0.00  0.00     0.034 A 
ATOM     23  C   LIG d   1       9.051   7.917  -8.128  0.00  0.00    -0.021 A 
ATOM     24  C   LIG d   1       9.275   7.275  -9.332  0.00  0.00     0.061 A 
ATOM     25  H   LIG d   1       8.264   7.575  -7.472  0.00  0.00     0.065 H 
ATOM     26  C   LIG d   1      10.284   7.713 -10.174  0.00  0.00     0.059 A 
ATOM     27 CL   LIG d   1       8.286   5.925  -9.793  0.00  0.00    -0.082 Cl
ATOM     28  C   LIG d   1      11.070   8.793  -9.812  0.00  0.00    -0.040 A 
ATOM     29 CL   LIG d   1      10.564   6.905 -11.684  0.00  0.00    -0.082 Cl
ATOM     30  C   LIG d   1      10.850   9.437  -8.610  0.00  0.00    -0.039 A 
ATOM     31  H   LIG d   1      11.856   9.132 -10.470  0.00  0.00     0.063 H 
ATOM     32  H   LIG d   1      11.464  10.280  -8.329  0.00  0.00     0.064 H 
ENDBRANCH   9  22
BRANCH   1  33
ATOM     33  C   LIG d   1       9.188  13.359  -3.200  0.00  0.00    -0.033 C 
ATOM     34  H   LIG d   1      10.030  14.047  -3.277  0.00  0.00     0.028 H 
ATOM     35  H   LIG d   1       8.550  13.467  -4.078  0.00  0.00     0.028 H 
ATOM     36  H   LIG d   1       8.613  13.587  -2.303  0.00  0.00     0.028 H 
ENDBRANCH   1  33
BRANCH  11  37
ATOM     37  C   LIG d   1      11.419   8.123  -0.431  0.00  0.00    -0.017 A 
ATOM     38  C   LIG d   1      12.784   7.863  -0.559  0.00  0.00    -0.054 A 
ATOM     39  C   LIG d   1      13.249   6.569  -0.452  0.00  0.00    -0.061 A 
ATOM     40  H   LIG d   1      13.474   8.673  -0.742  0.00  0.00     0.062 H 
ATOM     41  C   LIG d   1      12.367   5.530  -0.219  0.00  0.00    -0.062 A 
ATOM     42  H   LIG d   1      14.305   6.366  -0.552  0.00  0.00     0.062 H 
ATOM     43  C   LIG d   1      11.012   5.780  -0.091  0.00  0.00    -0.061 A 
ATOM     44  H   LIG d   1      12.735   4.518  -0.137  0.00  0.00     0.062 H 
ATOM     45  C   LIG d   1      10.533   7.071  -0.189  0.00  0.00    -0.054 A 
ATOM     46  H   LIG d   1      10.327   4.965   0.091  0.00  0.00     0.062 H 
ATOM     47  H   LIG d   1       9.477   7.267  -0.084  0.00  0.00     0.062 H 
ENDBRANCH  11  37
TORSDOF 3
ENDMDL
