MODEL 1
REMARK VINA RESULT:      -7.4      0.000      0.000
REMARK  9 active torsions:
REMARK  status: ('A' for Active; 'I' for Inactive)
REMARK    1  A    between atoms: C_1  and  C_2 
REMARK    2  A    between atoms: C_2  and  CA_3 
REMARK    3  A    between atoms: CA_3  and  C_5 
REMARK    4  A    between atoms: CA_3  and  N_7 
REMARK       I    between atoms: N_7  and  C_8 
REMARK    5  A    between atoms: C_8  and  C_10 
REMARK    6  A    between atoms: C_10  and  O_11 
REMARK    7  A    between atoms: O_11  and  C_12 
REMARK    8  A    between atoms: C_28  and  C_30 
REMARK    9  A    between atoms: C_28  and  C_31 
ROOT
ATOM      1  C   LIG d   1       4.339  -2.327  -6.244  0.00  0.00     0.136 A 
ATOM      2  C   LIG d   1       4.257  -2.377  -7.620  0.00  0.00     0.023 A 
ATOM      3  C   LIG d   1       3.776  -1.286  -8.344  0.00  0.00     0.131 A 
ATOM      4  C   LIG d   1       3.379  -0.134  -7.687  0.00  0.00     0.038 A 
ATOM      5  C   LIG d   1       3.460  -0.062  -6.303  0.00  0.00     0.149 A 
ATOM      6  C   LIG d   1       3.944  -1.159  -5.570  0.00  0.00     0.063 A 
ATOM      7  C   LIG d   1       4.030  -1.074  -4.155  0.00  0.00    -0.023 A 
ATOM      8  C   LIG d   1       3.636   0.070  -3.542  0.00  0.00     0.041 A 
ATOM      9  C   LIG d   1       3.152   1.146  -4.318  0.00  0.00     0.341 A 
ATOM     10  O   LIG d   1       2.797   2.171  -3.763  0.00  0.00    -0.245 OA
ATOM     11  O   LIG d   1       3.075   1.061  -5.656  0.00  0.00    -0.421 OA
ATOM     12  C   LIG d   1       3.812  -0.057  -2.044  0.00  0.00    -0.020 C 
ATOM     13  C   LIG d   1       4.765  -1.257  -1.851  0.00  0.00    -0.045 C 
ATOM     14  C   LIG d   1       4.508  -2.080  -3.132  0.00  0.00    -0.026 C 
ATOM     15  C   LIG d   1       2.851   1.060  -8.442  0.00  0.00    -0.017 C 
ATOM     16  C   LIG d   1       3.248   0.955  -9.917  0.00  0.00    -0.009 C 
ATOM     17  C   LIG d   1       2.905  -0.457 -10.407  0.00  0.00     0.105 C 
ATOM     18  O   LIG d   1       3.719  -1.391  -9.697  0.00  0.00    -0.486 OA
ATOM     19  H   LIG d   1       4.566  -3.272  -8.142  0.00  0.00     0.069 H 
ATOM     20  H   LIG d   1       4.259   0.851  -1.637  0.00  0.00     0.032 H 
ATOM     21  H   LIG d   1       2.853  -0.254  -1.565  0.00  0.00     0.032 H 
ATOM     22  H   LIG d   1       5.802  -0.926  -1.802  0.00  0.00     0.027 H 
ATOM     23  H   LIG d   1       4.498  -1.827  -0.961  0.00  0.00     0.027 H 
ATOM     24  H   LIG d   1       5.431  -2.554  -3.469  0.00  0.00     0.031 H 
ATOM     25  H   LIG d   1       3.740  -2.831  -2.952  0.00  0.00     0.031 H 
ATOM     26  H   LIG d   1       1.765   1.090  -8.361  0.00  0.00     0.032 H 
ATOM     27  H   LIG d   1       3.271   1.972  -8.018  0.00  0.00     0.032 H 
ATOM     28  H   LIG d   1       2.695   1.691 -10.500  0.00  0.00     0.031 H 
ATOM     29  H   LIG d   1       4.319   1.131 -10.023  0.00  0.00     0.031 H 
ENDROOT
BRANCH   1  30
ATOM     30  O   LIG d   1       4.803  -3.396  -5.548  0.00  0.00    -0.482 OA
BRANCH  30  31
ATOM     31  C   LIG d   1       5.492  -4.404  -6.289  0.00  0.00     0.165 C 
ATOM     32  H   LIG d   1       6.484  -4.554  -5.864  0.00  0.00     0.080 H 
ATOM     33  H   LIG d   1       5.585  -4.090  -7.329  0.00  0.00     0.080 H 
BRANCH  31  34
ATOM     34  C   LIG d   1       4.717  -5.695  -6.222  0.00  0.00     0.251 C 
ATOM     35  N   LIG d   1       5.363  -6.874  -6.308  0.00  0.00    -0.305 N 
ATOM     36  H   LIG d   1       6.327  -6.893  -6.413  0.00  0.00     0.149 HD
ATOM     37  O   LIG d   1       3.511  -5.672  -6.091  0.00  0.00    -0.272 OA
BRANCH  35  38
ATOM     38  CA  LIG d   1       4.609  -8.130  -6.243  0.00  0.00     0.062 C 
ATOM     39  HA  LIG d   1       3.543  -7.917  -6.314  0.00  0.00     0.056 H 
BRANCH  38  40
ATOM     40  C   LIG d   1       5.028  -9.035  -7.402  0.00  0.00    -0.032 C 
ATOM     41  H   LIG d   1       6.072  -8.850  -7.651  0.00  0.00     0.028 H 
ATOM     42  H   LIG d   1       4.905 -10.079  -7.110  0.00  0.00     0.028 H 
BRANCH  40  43
ATOM     43  C   LIG d   1       4.153  -8.741  -8.622  0.00  0.00    -0.063 C 
ATOM     44  H   LIG d   1       4.779  -8.684  -9.513  0.00  0.00     0.023 H 
ATOM     45  H   LIG d   1       3.420  -9.539  -8.744  0.00  0.00     0.023 H 
ATOM     46  H   LIG d   1       3.636  -7.792  -8.480  0.00  0.00     0.023 H 
ENDBRANCH  40  43
ENDBRANCH  38  40
BRANCH  38  47
ATOM     47  C   LIG d   1       4.898  -8.821  -4.935  0.00  0.00     0.062 C 
ATOM     48  O   LIG d   1       6.039  -8.959  -4.564  0.00  0.00    -0.548 OA
ATOM     49  OXT LIG d   1       3.886  -9.277  -4.180  0.00  0.00    -0.548 OA
ENDBRANCH  38  47
ENDBRANCH  35  38
ENDBRANCH  31  34
ENDBRANCH  30  31
ENDBRANCH   1  30
BRANCH  17  50
ATOM     50  C   LIG d   1       1.428  -0.751 -10.137  0.00  0.00    -0.025 C 
ATOM     51  H   LIG d   1       1.182  -1.747 -10.506  0.00  0.00     0.027 H 
ATOM     52  H   LIG d   1       1.238  -0.704  -9.064  0.00  0.00     0.027 H 
ATOM     53  H   LIG d   1       0.811  -0.012 -10.648  0.00  0.00     0.027 H 
ENDBRANCH  17  50
BRANCH  17  54
ATOM     54  C   LIG d   1       3.186  -0.565 -11.908  0.00  0.00    -0.025 C 
ATOM     55  H   LIG d   1       4.156  -0.120 -12.128  0.00  0.00     0.027 H 
ATOM     56  H   LIG d   1       3.192  -1.615 -12.201  0.00  0.00     0.027 H 
ATOM     57  H   LIG d   1       2.409  -0.037 -12.461  0.00  0.00     0.027 H 
ENDBRANCH  17  54
TORSDOF 9
ENDMDL
MODEL 2
REMARK VINA RESULT:      -7.3      2.421      7.520
REMARK  9 active torsions:
REMARK  status: ('A' for Active; 'I' for Inactive)
REMARK    1  A    between atoms: C_1  and  C_2 
REMARK    2  A    between atoms: C_2  and  CA_3 
REMARK    3  A    between atoms: CA_3  and  C_5 
REMARK    4  A    between atoms: CA_3  and  N_7 
REMARK       I    between atoms: N_7  and  C_8 
REMARK    5  A    between atoms: C_8  and  C_10 
REMARK    6  A    between atoms: C_10  and  O_11 
REMARK    7  A    between atoms: O_11  and  C_12 
REMARK    8  A    between atoms: C_28  and  C_30 
REMARK    9  A    between atoms: C_28  and  C_31 
ROOT
ATOM      1  C   LIG d   1       6.673  -1.958  -6.308  0.00  0.00     0.136 A 
ATOM      2  C   LIG d   1       6.462  -0.907  -5.440  0.00  0.00     0.023 A 
ATOM      3  C   LIG d   1       5.622  -1.055  -4.336  0.00  0.00     0.131 A 
ATOM      4  C   LIG d   1       4.994  -2.265  -4.094  0.00  0.00     0.038 A 
ATOM      5  C   LIG d   1       5.200  -3.337  -4.954  0.00  0.00     0.149 A 
ATOM      6  C   LIG d   1       6.045  -3.192  -6.067  0.00  0.00     0.063 A 
ATOM      7  C   LIG d   1       6.255  -4.295  -6.936  0.00  0.00    -0.023 A 
ATOM      8  C   LIG d   1       5.627  -5.468  -6.670  0.00  0.00     0.041 A 
ATOM      9  C   LIG d   1       4.783  -5.567  -5.542  0.00  0.00     0.341 A 
ATOM     10  O   LIG d   1       4.219  -6.621  -5.308  0.00  0.00    -0.245 OA
ATOM     11  O   LIG d   1       4.590  -4.521  -4.722  0.00  0.00    -0.421 OA
ATOM     12  C   LIG d   1       5.991  -6.500  -7.715  0.00  0.00    -0.020 C 
ATOM     13  C   LIG d   1       7.255  -5.943  -8.408  0.00  0.00    -0.045 C 
ATOM     14  C   LIG d   1       7.100  -4.423  -8.183  0.00  0.00    -0.026 C 
ATOM     15  C   LIG d   1       4.078  -2.454  -2.912  0.00  0.00    -0.017 C 
ATOM     16  C   LIG d   1       4.328  -1.347  -1.884  0.00  0.00    -0.009 C 
ATOM     17  C   LIG d   1       4.339  -0.002  -2.619  0.00  0.00     0.105 C 
ATOM     18  O   LIG d   1       5.452   0.013  -3.514  0.00  0.00    -0.486 OA
ATOM     19  H   LIG d   1       6.949   0.041  -5.620  0.00  0.00     0.069 H 
ATOM     20  H   LIG d   1       6.210  -7.457  -7.242  0.00  0.00     0.032 H 
ATOM     21  H   LIG d   1       5.182  -6.610  -8.437  0.00  0.00     0.032 H 
ATOM     22  H   LIG d   1       8.158  -6.318  -7.927  0.00  0.00     0.027 H 
ATOM     23  H   LIG d   1       7.253  -6.183  -9.471  0.00  0.00     0.027 H 
ATOM     24  H   LIG d   1       8.076  -3.962  -8.029  0.00  0.00     0.031 H 
ATOM     25  H   LIG d   1       6.594  -3.965  -9.032  0.00  0.00     0.031 H 
ATOM     26  H   LIG d   1       3.041  -2.411  -3.245  0.00  0.00     0.032 H 
ATOM     27  H   LIG d   1       4.271  -3.424  -2.454  0.00  0.00     0.032 H 
ATOM     28  H   LIG d   1       3.533  -1.352  -1.138  0.00  0.00     0.031 H 
ATOM     29  H   LIG d   1       5.290  -1.508  -1.397  0.00  0.00     0.031 H 
ENDROOT
BRANCH   1  30
ATOM     30  O   LIG d   1       7.488  -1.803  -7.383  0.00  0.00    -0.482 OA
BRANCH  30  31
ATOM     31  C   LIG d   1       7.330  -0.608  -8.150  0.00  0.00     0.165 C 
ATOM     32  H   LIG d   1       8.173  -0.499  -8.830  0.00  0.00     0.080 H 
ATOM     33  H   LIG d   1       7.290   0.250  -7.479  0.00  0.00     0.080 H 
BRANCH  31  34
ATOM     34  C   LIG d   1       6.051  -0.686  -8.943  0.00  0.00     0.251 C 
ATOM     35  N   LIG d   1       5.042   0.169  -8.680  0.00  0.00    -0.305 N 
ATOM     36  H   LIG d   1       5.140   0.834  -7.981  0.00  0.00     0.149 HD
ATOM     37  O   LIG d   1       5.929  -1.518  -9.817  0.00  0.00    -0.272 OA
BRANCH  35  38
ATOM     38  CA  LIG d   1       3.798   0.094  -9.451  0.00  0.00     0.062 C 
ATOM     39  HA  LIG d   1       3.702  -0.899  -9.888  0.00  0.00     0.056 H 
BRANCH  38  40
ATOM     40  C   LIG d   1       2.610   0.362  -8.526  0.00  0.00    -0.032 C 
ATOM     41  H   LIG d   1       2.318   1.409  -8.602  0.00  0.00     0.028 H 
ATOM     42  H   LIG d   1       1.771  -0.270  -8.821  0.00  0.00     0.028 H 
BRANCH  40  43
ATOM     43  C   LIG d   1       3.004   0.045  -7.082  0.00  0.00    -0.063 C 
ATOM     44  H   LIG d   1       3.952  -0.494  -7.074  0.00  0.00     0.023 H 
ATOM     45  H   LIG d   1       3.110   0.974  -6.523  0.00  0.00     0.023 H 
ATOM     46  H   LIG d   1       2.232  -0.571  -6.621  0.00  0.00     0.023 H 
ENDBRANCH  40  43
ENDBRANCH  38  40
BRANCH  38  47
ATOM     47  C   LIG d   1       3.824   1.127 -10.548  0.00  0.00     0.062 C 
ATOM     48  O   LIG d   1       4.054   0.793 -11.686  0.00  0.00    -0.548 OA
ATOM     49  OXT LIG d   1       3.585   2.416 -10.261  0.00  0.00    -0.548 OA
ENDBRANCH  38  47
ENDBRANCH  35  38
ENDBRANCH  31  34
ENDBRANCH  30  31
ENDBRANCH   1  30
BRANCH  17  50
ATOM     50  C   LIG d   1       3.039   0.164  -3.410  0.00  0.00    -0.025 C 
ATOM     51  H   LIG d   1       3.272   0.431  -4.440  0.00  0.00     0.027 H 
ATOM     52  H   LIG d   1       2.482  -0.772  -3.393  0.00  0.00     0.027 H 
ATOM     53  H   LIG d   1       2.438   0.953  -2.957  0.00  0.00     0.027 H 
ENDBRANCH  17  50
BRANCH  17  54
ATOM     54  C   LIG d   1       4.477   1.138  -1.608  0.00  0.00    -0.025 C 
ATOM     55  H   LIG d   1       4.222   0.773  -0.613  0.00  0.00     0.027 H 
ATOM     56  H   LIG d   1       5.503   1.504  -1.610  0.00  0.00     0.027 H 
ATOM     57  H   LIG d   1       3.801   1.949  -1.881  0.00  0.00     0.027 H 
ENDBRANCH  17  54
TORSDOF 9
ENDMDL
MODEL 3
REMARK VINA RESULT:      -7.0      4.039      6.449
REMARK  9 active torsions:
REMARK  status: ('A' for Active; 'I' for Inactive)
REMARK    1  A    between atoms: C_1  and  C_2 
REMARK    2  A    between atoms: C_2  and  CA_3 
REMARK    3  A    between atoms: CA_3  and  C_5 
REMARK    4  A    between atoms: CA_3  and  N_7 
REMARK       I    between atoms: N_7  and  C_8 
REMARK    5  A    between atoms: C_8  and  C_10 
REMARK    6  A    between atoms: C_10  and  O_11 
REMARK    7  A    between atoms: O_11  and  C_12 
REMARK    8  A    between atoms: C_28  and  C_30 
REMARK    9  A    between atoms: C_28  and  C_31 
ROOT
ATOM      1  C   LIG d   1       7.400  -1.264  -5.227  0.00  0.00     0.136 A 
ATOM      2  C   LIG d   1       8.546  -0.721  -5.770  0.00  0.00     0.023 A 
ATOM      3  C   LIG d   1       8.997   0.536  -5.367  0.00  0.00     0.131 A 
ATOM      4  C   LIG d   1       8.300   1.253  -4.410  0.00  0.00     0.038 A 
ATOM      5  C   LIG d   1       7.148   0.721  -3.847  0.00  0.00     0.149 A 
ATOM      6  C   LIG d   1       6.690  -0.545  -4.250  0.00  0.00     0.063 A 
ATOM      7  C   LIG d   1       5.514  -1.085  -3.664  0.00  0.00    -0.023 A 
ATOM      8  C   LIG d   1       4.856  -0.358  -2.726  0.00  0.00     0.041 A 
ATOM      9  C   LIG d   1       5.350   0.912  -2.355  0.00  0.00     0.341 A 
ATOM     10  O   LIG d   1       4.755   1.562  -1.515  0.00  0.00    -0.245 OA
ATOM     11  O   LIG d   1       6.464   1.416  -2.911  0.00  0.00    -0.421 OA
ATOM     12  C   LIG d   1       3.641  -1.118  -2.240  0.00  0.00    -0.020 C 
ATOM     13  C   LIG d   1       3.878  -2.580  -2.679  0.00  0.00    -0.045 C 
ATOM     14  C   LIG d   1       4.808  -2.401  -3.899  0.00  0.00    -0.026 C 
ATOM     15  C   LIG d   1       8.761   2.616  -3.958  0.00  0.00    -0.017 C 
ATOM     16  C   LIG d   1      10.228   2.820  -4.345  0.00  0.00    -0.009 C 
ATOM     17  C   LIG d   1      10.396   2.419  -5.816  0.00  0.00     0.105 C 
ATOM     18  O   LIG d   1      10.132   1.020  -5.934  0.00  0.00    -0.486 OA
ATOM     19  H   LIG d   1       9.097  -1.274  -6.517  0.00  0.00     0.069 H 
ATOM     20  H   LIG d   1       3.567  -1.057  -1.154  0.00  0.00     0.032 H 
ATOM     21  H   LIG d   1       2.737  -0.725  -2.704  0.00  0.00     0.032 H 
ATOM     22  H   LIG d   1       4.373  -3.147  -1.891  0.00  0.00     0.027 H 
ATOM     23  H   LIG d   1       2.941  -3.055  -2.969  0.00  0.00     0.027 H 
ATOM     24  H   LIG d   1       5.531  -3.216  -3.946  0.00  0.00     0.031 H 
ATOM     25  H   LIG d   1       4.224  -2.359  -4.818  0.00  0.00     0.031 H 
ATOM     26  H   LIG d   1       8.151   3.382  -4.434  0.00  0.00     0.032 H 
ATOM     27  H   LIG d   1       8.659   2.693  -2.875  0.00  0.00     0.032 H 
ATOM     28  H   LIG d   1      10.500   3.867  -4.217  0.00  0.00     0.031 H 
ATOM     29  H   LIG d   1      10.864   2.194  -3.718  0.00  0.00     0.031 H 
ENDROOT
BRANCH   1  30
ATOM     30  O   LIG d   1       6.965  -2.485  -5.629  0.00  0.00    -0.482 OA
BRANCH  30  31
ATOM     31  C   LIG d   1       6.743  -2.666  -7.029  0.00  0.00     0.165 C 
ATOM     32  H   LIG d   1       6.998  -3.688  -7.308  0.00  0.00     0.080 H 
ATOM     33  H   LIG d   1       7.366  -1.969  -7.588  0.00  0.00     0.080 H 
BRANCH  31  34
ATOM     34  C   LIG d   1       5.292  -2.407  -7.344  0.00  0.00     0.251 C 
ATOM     35  N   LIG d   1       4.882  -1.162  -7.658  0.00  0.00    -0.305 N 
ATOM     36  H   LIG d   1       5.522  -0.433  -7.682  0.00  0.00     0.149 HD
ATOM     37  O   LIG d   1       4.492  -3.319  -7.314  0.00  0.00    -0.272 OA
BRANCH  35  38
ATOM     38  CA  LIG d   1       3.472  -0.910  -7.965  0.00  0.00     0.062 C 
ATOM     39  HA  LIG d   1       2.864  -1.723  -7.570  0.00  0.00     0.056 H 
BRANCH  38  40
ATOM     40  C   LIG d   1       3.040   0.409  -7.322  0.00  0.00    -0.032 C 
ATOM     41  H   LIG d   1       3.816   1.159  -7.472  0.00  0.00     0.028 H 
ATOM     42  H   LIG d   1       2.113   0.751  -7.784  0.00  0.00     0.028 H 
BRANCH  40  43
ATOM     43  C   LIG d   1       2.816   0.198  -5.824  0.00  0.00    -0.063 C 
ATOM     44  H   LIG d   1       2.517  -0.835  -5.643  0.00  0.00     0.023 H 
ATOM     45  H   LIG d   1       3.740   0.408  -5.285  0.00  0.00     0.023 H 
ATOM     46  H   LIG d   1       2.031   0.869  -5.475  0.00  0.00     0.023 H 
ENDBRANCH  40  43
ENDBRANCH  38  40
BRANCH  38  47
ATOM     47  C   LIG d   1       3.290  -0.825  -9.459  0.00  0.00     0.062 C 
ATOM     48  O   LIG d   1       3.299   0.251 -10.008  0.00  0.00    -0.548 OA
ATOM     49  OXT LIG d   1       3.124  -1.945 -10.179  0.00  0.00    -0.548 OA
ENDBRANCH  38  47
ENDBRANCH  35  38
ENDBRANCH  31  34
ENDBRANCH  30  31
ENDBRANCH   1  30
BRANCH  17  50
ATOM     50  C   LIG d   1       9.408   3.205  -6.681  0.00  0.00    -0.025 C 
ATOM     51  H   LIG d   1       8.444   3.258  -6.175  0.00  0.00     0.027 H 
ATOM     52  H   LIG d   1       9.790   4.212  -6.844  0.00  0.00     0.027 H 
ATOM     53  H   LIG d   1       9.287   2.702  -7.641  0.00  0.00     0.027 H 
ENDBRANCH  17  50
BRANCH  17  54
ATOM     54  C   LIG d   1      11.827   2.713  -6.271  0.00  0.00    -0.025 C 
ATOM     55  H   LIG d   1      11.819   3.024  -7.315  0.00  0.00     0.027 H 
ATOM     56  H   LIG d   1      12.247   3.510  -5.657  0.00  0.00     0.027 H 
ATOM     57  H   LIG d   1      12.434   1.813  -6.164  0.00  0.00     0.027 H 
ENDBRANCH  17  54
TORSDOF 9
ENDMDL
MODEL 4
REMARK VINA RESULT:      -6.9      7.766     10.690
REMARK  9 active torsions:
REMARK  status: ('A' for Active; 'I' for Inactive)
REMARK    1  A    between atoms: C_1  and  C_2 
REMARK    2  A    between atoms: C_2  and  CA_3 
REMARK    3  A    between atoms: CA_3  and  C_5 
REMARK    4  A    between atoms: CA_3  and  N_7 
REMARK       I    between atoms: N_7  and  C_8 
REMARK    5  A    between atoms: C_8  and  C_10 
REMARK    6  A    between atoms: C_10  and  O_11 
REMARK    7  A    between atoms: O_11  and  C_12 
REMARK    8  A    between atoms: C_28  and  C_30 
REMARK    9  A    between atoms: C_28  and  C_31 
ROOT
ATOM      1  C   LIG d   1       9.920   4.044  -4.160  0.00  0.00     0.136 A 
ATOM      2  C   LIG d   1      10.077   4.133  -2.793  0.00  0.00     0.023 A 
ATOM      3  C   LIG d   1      10.394   5.352  -2.192  0.00  0.00     0.131 A 
ATOM      4  C   LIG d   1      10.547   6.491  -2.963  0.00  0.00     0.038 A 
ATOM      5  C   LIG d   1      10.387   6.422  -4.341  0.00  0.00     0.149 A 
ATOM      6  C   LIG d   1      10.068   5.197  -4.950  0.00  0.00     0.063 A 
ATOM      7  C   LIG d   1       9.899   5.137  -6.359  0.00  0.00    -0.023 A 
ATOM      8  C   LIG d   1      10.054   6.272  -7.086  0.00  0.00     0.041 A 
ATOM      9  C   LIG d   1      10.378   7.480  -6.432  0.00  0.00     0.341 A 
ATOM     10  O   LIG d   1      10.518   8.497  -7.089  0.00  0.00    -0.245 OA
ATOM     11  O   LIG d   1      10.535   7.531  -5.099  0.00  0.00    -0.421 OA
ATOM     12  C   LIG d   1       9.829   5.981  -8.554  0.00  0.00    -0.020 C 
ATOM     13  C   LIG d   1       9.095   4.623  -8.589  0.00  0.00    -0.045 C 
ATOM     14  C   LIG d   1       9.556   3.976  -7.265  0.00  0.00    -0.026 C 
ATOM     15  C   LIG d   1      10.893   7.821  -2.342  0.00  0.00    -0.017 C 
ATOM     16  C   LIG d   1      10.594   7.783  -0.841  0.00  0.00    -0.009 C 
ATOM     17  C   LIG d   1      11.205   6.502  -0.262  0.00  0.00     0.105 C 
ATOM     18  O   LIG d   1      10.535   5.381  -0.841  0.00  0.00    -0.486 OA
ATOM     19  H   LIG d   1       9.958   3.250  -2.182  0.00  0.00     0.069 H 
ATOM     20  H   LIG d   1       9.209   6.758  -9.003  0.00  0.00     0.032 H 
ATOM     21  H   LIG d   1      10.783   5.909  -9.077  0.00  0.00     0.032 H 
ATOM     22  H   LIG d   1       8.014   4.765  -8.597  0.00  0.00     0.027 H 
ATOM     23  H   LIG d   1       9.414   4.030  -9.445  0.00  0.00     0.027 H 
ATOM     24  H   LIG d   1       8.750   3.382  -6.832  0.00  0.00     0.031 H 
ATOM     25  H   LIG d   1      10.436   3.355  -7.433  0.00  0.00     0.031 H 
ATOM     26  H   LIG d   1      11.951   8.029  -2.496  0.00  0.00     0.032 H 
ATOM     27  H   LIG d   1      10.298   8.605  -2.810  0.00  0.00     0.032 H 
ATOM     28  H   LIG d   1      11.037   8.653  -0.356  0.00  0.00     0.031 H 
ATOM     29  H   LIG d   1       9.515   7.781  -0.681  0.00  0.00     0.031 H 
ENDROOT
BRANCH   1  30
ATOM     30  O   LIG d   1       9.618   2.853  -4.737  0.00  0.00    -0.482 OA
BRANCH  30  31
ATOM     31  C   LIG d   1       9.278   1.776  -3.862  0.00  0.00     0.165 C 
ATOM     32  H   LIG d   1       9.405   2.093  -2.828  0.00  0.00     0.080 H 
ATOM     33  H   LIG d   1       9.928   0.925  -4.064  0.00  0.00     0.080 H 
BRANCH  31  34
ATOM     34  C   LIG d   1       7.843   1.377  -4.092  0.00  0.00     0.251 C 
ATOM     35  N   LIG d   1       7.209   0.593  -3.197  0.00  0.00    -0.305 N 
ATOM     36  H   LIG d   1       7.677   0.286  -2.405  0.00  0.00     0.149 HD
ATOM     37  O   LIG d   1       7.258   1.762  -5.082  0.00  0.00    -0.272 OA
BRANCH  35  38
ATOM     38  CA  LIG d   1       5.814   0.205  -3.420  0.00  0.00     0.062 C 
ATOM     39  HA  LIG d   1       5.583   0.276  -4.483  0.00  0.00     0.056 H 
BRANCH  38  40
ATOM     40  C   LIG d   1       5.604  -1.235  -2.948  0.00  0.00    -0.032 C 
ATOM     41  H   LIG d   1       6.285  -1.897  -3.483  0.00  0.00     0.028 H 
ATOM     42  H   LIG d   1       5.805  -1.298  -1.878  0.00  0.00     0.028 H 
BRANCH  40  43
ATOM     43  C   LIG d   1       4.160  -1.658  -3.223  0.00  0.00    -0.063 C 
ATOM     44  H   LIG d   1       4.042  -1.879  -4.284  0.00  0.00     0.023 H 
ATOM     45  H   LIG d   1       3.925  -2.547  -2.638  0.00  0.00     0.023 H 
ATOM     46  H   LIG d   1       3.485  -0.850  -2.943  0.00  0.00     0.023 H 
ENDBRANCH  40  43
ENDBRANCH  38  40
BRANCH  38  47
ATOM     47  C   LIG d   1       4.907   1.126  -2.646  0.00  0.00     0.062 C 
ATOM     48  O   LIG d   1       4.206   1.917  -3.231  0.00  0.00    -0.548 OA
ATOM     49  OXT LIG d   1       4.872   1.062  -1.305  0.00  0.00    -0.548 OA
ENDBRANCH  38  47
ENDBRANCH  35  38
ENDBRANCH  31  34
ENDBRANCH  30  31
ENDBRANCH   1  30
BRANCH  17  50
ATOM     50  C   LIG d   1      12.696   6.442  -0.602  0.00  0.00    -0.025 C 
ATOM     51  H   LIG d   1      13.222   7.236  -0.073  0.00  0.00     0.027 H 
ATOM     52  H   LIG d   1      13.099   5.475  -0.302  0.00  0.00     0.027 H 
ATOM     53  H   LIG d   1      12.828   6.573  -1.677  0.00  0.00     0.027 H 
ENDBRANCH  17  50
BRANCH  17  54
ATOM     54  C   LIG d   1      11.022   6.483   1.257  0.00  0.00    -0.025 C 
ATOM     55  H   LIG d   1      10.986   5.451   1.605  0.00  0.00     0.027 H 
ATOM     56  H   LIG d   1      11.858   6.998   1.731  0.00  0.00     0.027 H 
ATOM     57  H   LIG d   1      10.090   6.987   1.516  0.00  0.00     0.027 H 
ENDBRANCH  17  54
TORSDOF 9
ENDMDL
MODEL 5
REMARK VINA RESULT:      -6.9      2.687      4.482
REMARK  9 active torsions:
REMARK  status: ('A' for Active; 'I' for Inactive)
REMARK    1  A    between atoms: C_1  and  C_2 
REMARK    2  A    between atoms: C_2  and  CA_3 
REMARK    3  A    between atoms: CA_3  and  C_5 
REMARK    4  A    between atoms: CA_3  and  N_7 
REMARK       I    between atoms: N_7  and  C_8 
REMARK    5  A    between atoms: C_8  and  C_10 
REMARK    6  A    between atoms: C_10  and  O_11 
REMARK    7  A    between atoms: O_11  and  C_12 
REMARK    8  A    between atoms: C_28  and  C_30 
REMARK    9  A    between atoms: C_28  and  C_31 
ROOT
ATOM      1  C   LIG d   1       4.311  -2.371  -6.248  0.00  0.00     0.136 A 
ATOM      2  C   LIG d   1       4.237  -2.424  -7.624  0.00  0.00     0.023 A 
ATOM      3  C   LIG d   1       3.774  -1.329  -8.355  0.00  0.00     0.131 A 
ATOM      4  C   LIG d   1       3.388  -0.169  -7.704  0.00  0.00     0.038 A 
ATOM      5  C   LIG d   1       3.461  -0.094  -6.319  0.00  0.00     0.149 A 
ATOM      6  C   LIG d   1       3.927  -1.195  -5.580  0.00  0.00     0.063 A 
ATOM      7  C   LIG d   1       4.005  -1.107  -4.165  0.00  0.00    -0.023 A 
ATOM      8  C   LIG d   1       3.622   0.044  -3.558  0.00  0.00     0.041 A 
ATOM      9  C   LIG d   1       3.157   1.124  -4.340  0.00  0.00     0.341 A 
ATOM     10  O   LIG d   1       2.811   2.155  -3.791  0.00  0.00    -0.245 OA
ATOM     11  O   LIG d   1       3.087   1.035  -5.679  0.00  0.00    -0.421 OA
ATOM     12  C   LIG d   1       3.787  -0.081  -2.059  0.00  0.00    -0.020 C 
ATOM     13  C   LIG d   1       4.723  -1.292  -1.855  0.00  0.00    -0.045 C 
ATOM     14  C   LIG d   1       4.464  -2.115  -3.136  0.00  0.00    -0.026 C 
ATOM     15  C   LIG d   1       2.881   1.029  -8.466  0.00  0.00    -0.017 C 
ATOM     16  C   LIG d   1       3.285   0.914  -9.938  0.00  0.00    -0.009 C 
ATOM     17  C   LIG d   1       2.927  -0.495 -10.426  0.00  0.00     0.105 C 
ATOM     18  O   LIG d   1       3.724  -1.437  -9.708  0.00  0.00    -0.486 OA
ATOM     19  H   LIG d   1       4.537  -3.324  -8.142  0.00  0.00     0.069 H 
ATOM     20  H   LIG d   1       4.243   0.823  -1.652  0.00  0.00     0.032 H 
ATOM     21  H   LIG d   1       2.822  -0.264  -1.585  0.00  0.00     0.032 H 
ATOM     22  H   LIG d   1       5.764  -0.974  -1.802  0.00  0.00     0.027 H 
ATOM     23  H   LIG d   1       4.443  -1.855  -0.966  0.00  0.00     0.027 H 
ATOM     24  H   LIG d   1       5.382  -2.603  -3.465  0.00  0.00     0.031 H 
ATOM     25  H   LIG d   1       3.684  -2.856  -2.958  0.00  0.00     0.031 H 
ATOM     26  H   LIG d   1       1.794   1.073  -8.391  0.00  0.00     0.032 H 
ATOM     27  H   LIG d   1       3.310   1.937  -8.042  0.00  0.00     0.032 H 
ATOM     28  H   LIG d   1       2.745   1.655 -10.526  0.00  0.00     0.031 H 
ATOM     29  H   LIG d   1       4.359   1.075 -10.038  0.00  0.00     0.031 H 
ENDROOT
BRANCH   1  30
ATOM     30  O   LIG d   1       4.756  -3.443  -5.546  0.00  0.00    -0.482 OA
BRANCH  30  31
ATOM     31  C   LIG d   1       6.078  -3.903  -5.833  0.00  0.00     0.165 C 
ATOM     32  H   LIG d   1       6.226  -3.933  -6.912  0.00  0.00     0.080 H 
ATOM     33  H   LIG d   1       6.212  -4.903  -5.420  0.00  0.00     0.080 H 
BRANCH  31  34
ATOM     34  C   LIG d   1       7.082  -2.965  -5.214  0.00  0.00     0.251 C 
ATOM     35  N   LIG d   1       7.427  -1.830  -5.853  0.00  0.00    -0.305 N 
ATOM     36  H   LIG d   1       7.028  -1.616  -6.711  0.00  0.00     0.149 HD
ATOM     37  O   LIG d   1       7.580  -3.233  -4.141  0.00  0.00    -0.272 OA
BRANCH  35  38
ATOM     38  CA  LIG d   1       8.403  -0.917  -5.252  0.00  0.00     0.062 C 
ATOM     39  HA  LIG d   1       8.933  -1.431  -4.450  0.00  0.00     0.056 H 
BRANCH  38  40
ATOM     40  C   LIG d   1       9.403  -0.467  -6.318  0.00  0.00    -0.032 C 
ATOM     41  H   LIG d   1       9.459   0.621  -6.329  0.00  0.00     0.028 H 
ATOM     42  H   LIG d   1      10.387  -0.878  -6.089  0.00  0.00     0.028 H 
BRANCH  40  43
ATOM     43  C   LIG d   1       8.948  -0.969  -7.690  0.00  0.00    -0.063 C 
ATOM     44  H   LIG d   1       9.543  -0.489  -8.468  0.00  0.00     0.023 H 
ATOM     45  H   LIG d   1       9.083  -2.049  -7.744  0.00  0.00     0.023 H 
ATOM     46  H   LIG d   1       7.896  -0.726  -7.836  0.00  0.00     0.023 H 
ENDBRANCH  40  43
ENDBRANCH  38  40
BRANCH  38  47
ATOM     47  C   LIG d   1       7.688   0.286  -4.693  0.00  0.00     0.062 C 
ATOM     48  O   LIG d   1       7.355   0.306  -3.532  0.00  0.00    -0.548 OA
ATOM     49  OXT LIG d   1       7.427   1.338  -5.484  0.00  0.00    -0.548 OA
ENDBRANCH  38  47
ENDBRANCH  35  38
ENDBRANCH  31  34
ENDBRANCH  30  31
ENDBRANCH   1  30
BRANCH  17  50
ATOM     50  C   LIG d   1       1.444  -0.769 -10.164  0.00  0.00    -0.025 C 
ATOM     51  H   LIG d   1       1.247  -1.836 -10.271  0.00  0.00     0.027 H 
ATOM     52  H   LIG d   1       1.189  -0.452  -9.153  0.00  0.00     0.027 H 
ATOM     53  H   LIG d   1       0.840  -0.215 -10.882  0.00  0.00     0.027 H 
ENDBRANCH  17  50
BRANCH  17  54
ATOM     54  C   LIG d   1       3.216  -0.611 -11.924  0.00  0.00    -0.025 C 
ATOM     55  H   LIG d   1       3.305   0.385 -12.355  0.00  0.00     0.027 H 
ATOM     56  H   LIG d   1       4.147  -1.158 -12.073  0.00  0.00     0.027 H 
ATOM     57  H   LIG d   1       2.399  -1.146 -12.411  0.00  0.00     0.027 H 
ENDBRANCH  17  54
TORSDOF 9
ENDMDL
MODEL 6
REMARK VINA RESULT:      -6.8      3.057      3.966
REMARK  9 active torsions:
REMARK  status: ('A' for Active; 'I' for Inactive)
REMARK    1  A    between atoms: C_1  and  C_2 
REMARK    2  A    between atoms: C_2  and  CA_3 
REMARK    3  A    between atoms: CA_3  and  C_5 
REMARK    4  A    between atoms: CA_3  and  N_7 
REMARK       I    between atoms: N_7  and  C_8 
REMARK    5  A    between atoms: C_8  and  C_10 
REMARK    6  A    between atoms: C_10  and  O_11 
REMARK    7  A    between atoms: O_11  and  C_12 
REMARK    8  A    between atoms: C_28  and  C_30 
REMARK    9  A    between atoms: C_28  and  C_31 
ROOT
ATOM      1  C   LIG d   1       4.680  -2.210  -5.728  0.00  0.00     0.136 A 
ATOM      2  C   LIG d   1       4.705  -2.630  -7.041  0.00  0.00     0.023 A 
ATOM      3  C   LIG d   1       4.104  -1.869  -8.044  0.00  0.00     0.131 A 
ATOM      4  C   LIG d   1       3.479  -0.674  -7.731  0.00  0.00     0.038 A 
ATOM      5  C   LIG d   1       3.448  -0.231  -6.415  0.00  0.00     0.149 A 
ATOM      6  C   LIG d   1       4.052  -0.995  -5.403  0.00  0.00     0.063 A 
ATOM      7  C   LIG d   1       4.022  -0.531  -4.061  0.00  0.00    -0.023 A 
ATOM      8  C   LIG d   1       3.403   0.645  -3.789  0.00  0.00     0.041 A 
ATOM      9  C   LIG d   1       2.806   1.379  -4.837  0.00  0.00     0.341 A 
ATOM     10  O   LIG d   1       2.249   2.433  -4.588  0.00  0.00    -0.245 OA
ATOM     11  O   LIG d   1       2.839   0.935  -6.105  0.00  0.00    -0.421 OA
ATOM     12  C   LIG d   1       3.491   0.946  -2.308  0.00  0.00    -0.020 C 
ATOM     13  C   LIG d   1       4.611   0.026  -1.775  0.00  0.00    -0.045 C 
ATOM     14  C   LIG d   1       4.584  -1.134  -2.794  0.00  0.00    -0.026 C 
ATOM     15  C   LIG d   1       2.817   0.169  -8.793  0.00  0.00    -0.017 C 
ATOM     16  C   LIG d   1       3.330  -0.245 -10.174  0.00  0.00    -0.009 C 
ATOM     17  C   LIG d   1       3.258  -1.773 -10.275  0.00  0.00     0.105 C 
ATOM     18  O   LIG d   1       4.162  -2.330  -9.320  0.00  0.00    -0.486 OA
ATOM     19  H   LIG d   1       5.193  -3.561  -7.295  0.00  0.00     0.069 H 
ATOM     20  H   LIG d   1       3.753   1.993  -2.149  0.00  0.00     0.032 H 
ATOM     21  H   LIG d   1       2.545   0.714  -1.818  0.00  0.00     0.032 H 
ATOM     22  H   LIG d   1       5.574   0.537  -1.792  0.00  0.00     0.027 H 
ATOM     23  H   LIG d   1       4.378  -0.330  -0.772  0.00  0.00     0.027 H 
ATOM     24  H   LIG d   1       5.593  -1.509  -2.968  0.00  0.00     0.031 H 
ATOM     25  H   LIG d   1       3.938  -1.936  -2.437  0.00  0.00     0.031 H 
ATOM     26  H   LIG d   1       1.738   0.026  -8.749  0.00  0.00     0.032 H 
ATOM     27  H   LIG d   1       3.051   1.219  -8.619  0.00  0.00     0.032 H 
ATOM     28  H   LIG d   1       2.706   0.204 -10.947  0.00  0.00     0.031 H 
ATOM     29  H   LIG d   1       4.362   0.084 -10.297  0.00  0.00     0.031 H 
ENDROOT
BRANCH   1  30
ATOM     30  O   LIG d   1       5.262  -2.961  -4.759  0.00  0.00    -0.482 OA
BRANCH  30  31
ATOM     31  C   LIG d   1       6.394  -3.745  -5.137  0.00  0.00     0.165 C 
ATOM     32  H   LIG d   1       6.640  -3.549  -6.180  0.00  0.00     0.080 H 
ATOM     33  H   LIG d   1       6.161  -4.802  -5.011  0.00  0.00     0.080 H 
BRANCH  31  34
ATOM     34  C   LIG d   1       7.570  -3.382  -4.268  0.00  0.00     0.251 C 
ATOM     35  N   LIG d   1       8.487  -4.317  -3.949  0.00  0.00    -0.305 N 
ATOM     36  H   LIG d   1       8.390  -5.223  -4.280  0.00  0.00     0.149 HD
ATOM     37  O   LIG d   1       7.691  -2.248  -3.854  0.00  0.00    -0.272 OA
BRANCH  35  38
ATOM     38  CA  LIG d   1       9.630  -3.964  -3.103  0.00  0.00     0.062 C 
ATOM     39  HA  LIG d   1       9.466  -2.981  -2.663  0.00  0.00     0.056 H 
BRANCH  38  40
ATOM     40  C   LIG d   1       9.780  -5.003  -1.991  0.00  0.00    -0.032 C 
ATOM     41  H   LIG d   1      10.782  -4.941  -1.567  0.00  0.00     0.028 H 
ATOM     42  H   LIG d   1       9.044  -4.807  -1.210  0.00  0.00     0.028 H 
BRANCH  40  43
ATOM     43  C   LIG d   1       9.554  -6.403  -2.564  0.00  0.00    -0.063 C 
ATOM     44  H   LIG d   1       9.535  -6.351  -3.654  0.00  0.00     0.023 H 
ATOM     45  H   LIG d   1      10.363  -7.061  -2.247  0.00  0.00     0.023 H 
ATOM     46  H   LIG d   1       8.603  -6.795  -2.204  0.00  0.00     0.023 H 
ENDBRANCH  40  43
ENDBRANCH  38  40
BRANCH  38  47
ATOM     47  C   LIG d   1      10.884  -3.939  -3.939  0.00  0.00     0.062 C 
ATOM     48  O   LIG d   1      11.928  -3.574  -3.451  0.00  0.00    -0.548 OA
ATOM     49  OXT LIG d   1      10.842  -4.327  -5.223  0.00  0.00    -0.548 OA
ENDBRANCH  38  47
ENDBRANCH  35  38
ENDBRANCH  31  34
ENDBRANCH  30  31
ENDBRANCH   1  30
BRANCH  17  50
ATOM     50  C   LIG d   1       1.834  -2.244  -9.972  0.00  0.00    -0.025 C 
ATOM     51  H   LIG d   1       1.780  -3.328 -10.071  0.00  0.00     0.027 H 
ATOM     52  H   LIG d   1       1.565  -1.957  -8.956  0.00  0.00     0.027 H 
ATOM     53  H   LIG d   1       1.141  -1.781 -10.676  0.00  0.00     0.027 H 
ENDBRANCH  17  50
BRANCH  17  54
ATOM     54  C   LIG d   1       3.660  -2.217 -11.684  0.00  0.00    -0.025 C 
ATOM     55  H   LIG d   1       4.497  -1.612 -12.030  0.00  0.00     0.027 H 
ATOM     56  H   LIG d   1       3.952  -3.267 -11.664  0.00  0.00     0.027 H 
ATOM     57  H   LIG d   1       2.814  -2.088 -12.360  0.00  0.00     0.027 H 
ENDBRANCH  17  54
TORSDOF 9
ENDMDL
MODEL 7
REMARK VINA RESULT:      -6.8      4.439      7.557
REMARK  9 active torsions:
REMARK  status: ('A' for Active; 'I' for Inactive)
REMARK    1  A    between atoms: C_1  and  C_2 
REMARK    2  A    between atoms: C_2  and  CA_3 
REMARK    3  A    between atoms: CA_3  and  C_5 
REMARK    4  A    between atoms: CA_3  and  N_7 
REMARK       I    between atoms: N_7  and  C_8 
REMARK    5  A    between atoms: C_8  and  C_10 
REMARK    6  A    between atoms: C_10  and  O_11 
REMARK    7  A    between atoms: O_11  and  C_12 
REMARK    8  A    between atoms: C_28  and  C_30 
REMARK    9  A    between atoms: C_28  and  C_31 
ROOT
ATOM      1  C   LIG d   1       7.416  -0.468  -6.036  0.00  0.00     0.136 A 
ATOM      2  C   LIG d   1       6.141  -0.873  -5.701  0.00  0.00     0.023 A 
ATOM      3  C   LIG d   1       5.492  -0.334  -4.590  0.00  0.00     0.131 A 
ATOM      4  C   LIG d   1       6.120   0.623  -3.811  0.00  0.00     0.038 A 
ATOM      5  C   LIG d   1       7.402   1.048  -4.136  0.00  0.00     0.149 A 
ATOM      6  C   LIG d   1       8.059   0.508  -5.255  0.00  0.00     0.063 A 
ATOM      7  C   LIG d   1       9.366   0.954  -5.583  0.00  0.00    -0.023 A 
ATOM      8  C   LIG d   1       9.953   1.895  -4.802  0.00  0.00     0.041 A 
ATOM      9  C   LIG d   1       9.257   2.408  -3.685  0.00  0.00     0.341 A 
ATOM     10  O   LIG d   1       9.789   3.250  -2.984  0.00  0.00    -0.245 OA
ATOM     11  O   LIG d   1       8.020   1.983  -3.380  0.00  0.00    -0.421 OA
ATOM     12  C   LIG d   1      11.333   2.222  -5.331  0.00  0.00    -0.020 C 
ATOM     13  C   LIG d   1      11.347   1.683  -6.779  0.00  0.00    -0.045 C 
ATOM     14  C   LIG d   1      10.291   0.558  -6.712  0.00  0.00    -0.026 C 
ATOM     15  C   LIG d   1       5.446   1.220  -2.602  0.00  0.00    -0.017 C 
ATOM     16  C   LIG d   1       3.938   0.965  -2.674  0.00  0.00    -0.009 C 
ATOM     17  C   LIG d   1       3.716  -0.516  -3.003  0.00  0.00     0.105 C 
ATOM     18  O   LIG d   1       4.236  -0.770  -4.309  0.00  0.00    -0.486 OA
ATOM     19  H   LIG d   1       5.642  -1.619  -6.304  0.00  0.00     0.069 H 
ATOM     20  H   LIG d   1      11.494   3.300  -5.328  0.00  0.00     0.032 H 
ATOM     21  H   LIG d   1      12.096   1.723  -4.734  0.00  0.00     0.032 H 
ATOM     22  H   LIG d   1      11.047   2.457  -7.485  0.00  0.00     0.027 H 
ATOM     23  H   LIG d   1      12.328   1.282  -7.035  0.00  0.00     0.027 H 
ATOM     24  H   LIG d   1       9.740   0.499  -7.651  0.00  0.00     0.031 H 
ATOM     25  H   LIG d   1      10.769  -0.397  -6.492  0.00  0.00     0.031 H 
ATOM     26  H   LIG d   1       5.848   0.763  -1.699  0.00  0.00     0.032 H 
ATOM     27  H   LIG d   1       5.631   2.294  -2.578  0.00  0.00     0.032 H 
ATOM     28  H   LIG d   1       3.480   1.201  -1.714  0.00  0.00     0.031 H 
ATOM     29  H   LIG d   1       3.497   1.586  -3.455  0.00  0.00     0.031 H 
ENDROOT
BRANCH   1  30
ATOM     30  O   LIG d   1       8.042  -1.002  -7.115  0.00  0.00    -0.482 OA
BRANCH  30  31
ATOM     31  C   LIG d   1       7.219  -1.387  -8.218  0.00  0.00     0.165 C 
ATOM     32  H   LIG d   1       6.352  -1.935  -7.850  0.00  0.00     0.080 H 
ATOM     33  H   LIG d   1       7.792  -2.022  -8.893  0.00  0.00     0.080 H 
BRANCH  31  34
ATOM     34  C   LIG d   1       6.759  -0.156  -8.955  0.00  0.00     0.251 C 
ATOM     35  N   LIG d   1       5.454   0.004  -9.251  0.00  0.00    -0.305 N 
ATOM     36  H   LIG d   1       4.810  -0.672  -8.989  0.00  0.00     0.149 HD
ATOM     37  O   LIG d   1       7.563   0.691  -9.283  0.00  0.00    -0.272 OA
BRANCH  35  38
ATOM     38  CA  LIG d   1       5.006   1.202  -9.968  0.00  0.00     0.062 C 
ATOM     39  HA  LIG d   1       5.872   1.744 -10.344  0.00  0.00     0.056 H 
BRANCH  38  40
ATOM     40  C   LIG d   1       4.114   0.789 -11.140  0.00  0.00    -0.032 C 
ATOM     41  H   LIG d   1       3.364   1.560 -11.316  0.00  0.00     0.028 H 
ATOM     42  H   LIG d   1       4.725   0.667 -12.035  0.00  0.00     0.028 H 
BRANCH  40  43
ATOM     43  C   LIG d   1       3.419  -0.534 -10.812  0.00  0.00    -0.063 C 
ATOM     44  H   LIG d   1       2.394  -0.507 -11.184  0.00  0.00     0.023 H 
ATOM     45  H   LIG d   1       3.956  -1.354 -11.289  0.00  0.00     0.023 H 
ATOM     46  H   LIG d   1       3.410  -0.683  -9.733  0.00  0.00     0.023 H 
ENDBRANCH  40  43
ENDBRANCH  38  40
BRANCH  38  47
ATOM     47  C   LIG d   1       4.226   2.086  -9.030  0.00  0.00     0.062 C 
ATOM     48  O   LIG d   1       4.150   3.273  -9.242  0.00  0.00    -0.548 OA
ATOM     49  OXT LIG d   1       3.610   1.554  -7.962  0.00  0.00    -0.548 OA
ENDBRANCH  38  47
ENDBRANCH  35  38
ENDBRANCH  31  34
ENDBRANCH  30  31
ENDBRANCH   1  30
BRANCH  17  50
ATOM     50  C   LIG d   1       4.448  -1.387  -1.979  0.00  0.00    -0.025 C 
ATOM     51  H   LIG d   1       3.860  -2.282  -1.777  0.00  0.00     0.027 H 
ATOM     52  H   LIG d   1       5.422  -1.673  -2.375  0.00  0.00     0.027 H 
ATOM     53  H   LIG d   1       4.582  -0.824  -1.055  0.00  0.00     0.027 H 
ENDBRANCH  17  50
BRANCH  17  54
ATOM     54  C   LIG d   1       2.220  -0.833  -2.974  0.00  0.00    -0.025 C 
ATOM     55  H   LIG d   1       2.069  -1.890  -3.188  0.00  0.00     0.027 H 
ATOM     56  H   LIG d   1       1.817  -0.600  -1.988  0.00  0.00     0.027 H 
ATOM     57  H   LIG d   1       1.707  -0.233  -3.727  0.00  0.00     0.027 H 
ENDBRANCH  17  54
TORSDOF 9
ENDMDL
MODEL 8
REMARK VINA RESULT:      -6.4      2.480      6.535
REMARK  9 active torsions:
REMARK  status: ('A' for Active; 'I' for Inactive)
REMARK    1  A    between atoms: C_1  and  C_2 
REMARK    2  A    between atoms: C_2  and  CA_3 
REMARK    3  A    between atoms: CA_3  and  C_5 
REMARK    4  A    between atoms: CA_3  and  N_7 
REMARK       I    between atoms: N_7  and  C_8 
REMARK    5  A    between atoms: C_8  and  C_10 
REMARK    6  A    between atoms: C_10  and  O_11 
REMARK    7  A    between atoms: O_11  and  C_12 
REMARK    8  A    between atoms: C_28  and  C_30 
REMARK    9  A    between atoms: C_28  and  C_31 
ROOT
ATOM      1  C   LIG d   1       3.870  -2.304  -8.124  0.00  0.00     0.136 A 
ATOM      2  C   LIG d   1       3.071  -1.685  -9.061  0.00  0.00     0.023 A 
ATOM      3  C   LIG d   1       2.289  -2.438  -9.938  0.00  0.00     0.131 A 
ATOM      4  C   LIG d   1       2.301  -3.821  -9.871  0.00  0.00     0.038 A 
ATOM      5  C   LIG d   1       3.095  -4.462  -8.929  0.00  0.00     0.149 A 
ATOM      6  C   LIG d   1       3.884  -3.707  -8.045  0.00  0.00     0.063 A 
ATOM      7  C   LIG d   1       4.687  -4.372  -7.081  0.00  0.00    -0.023 A 
ATOM      8  C   LIG d   1       4.675  -5.728  -7.039  0.00  0.00     0.041 A 
ATOM      9  C   LIG d   1       3.870  -6.446  -7.950  0.00  0.00     0.341 A 
ATOM     10  O   LIG d   1       3.863  -7.663  -7.912  0.00  0.00    -0.245 OA
ATOM     11  O   LIG d   1       3.110  -5.812  -8.859  0.00  0.00    -0.421 OA
ATOM     12  C   LIG d   1       5.595  -6.221  -5.944  0.00  0.00    -0.020 C 
ATOM     13  C   LIG d   1       5.839  -4.994  -5.039  0.00  0.00    -0.045 C 
ATOM     14  C   LIG d   1       5.614  -3.823  -6.020  0.00  0.00    -0.026 C 
ATOM     15  C   LIG d   1       1.469  -4.661 -10.807  0.00  0.00    -0.017 C 
ATOM     16  C   LIG d   1       0.373  -3.799 -11.438  0.00  0.00    -0.009 C 
ATOM     17  C   LIG d   1       1.015  -2.507 -11.957  0.00  0.00     0.105 C 
ATOM     18  O   LIG d   1       1.519  -1.774 -10.840  0.00  0.00    -0.486 OA
ATOM     19  H   LIG d   1       3.053  -0.606  -9.120  0.00  0.00     0.069 H 
ATOM     20  H   LIG d   1       5.115  -7.020  -5.378  0.00  0.00     0.032 H 
ATOM     21  H   LIG d   1       6.536  -6.572  -6.369  0.00  0.00     0.032 H 
ATOM     22  H   LIG d   1       5.116  -4.963  -4.223  0.00  0.00     0.027 H 
ATOM     23  H   LIG d   1       6.858  -4.991  -4.654  0.00  0.00     0.027 H 
ATOM     24  H   LIG d   1       5.147  -2.982  -5.505  0.00  0.00     0.031 H 
ATOM     25  H   LIG d   1       6.560  -3.516  -6.465  0.00  0.00     0.031 H 
ATOM     26  H   LIG d   1       2.106  -5.068 -11.592  0.00  0.00     0.032 H 
ATOM     27  H   LIG d   1       1.013  -5.479 -10.251  0.00  0.00     0.032 H 
ATOM     28  H   LIG d   1      -0.089  -4.338 -12.265  0.00  0.00     0.031 H 
ATOM     29  H   LIG d   1      -0.383  -3.559 -10.688  0.00  0.00     0.031 H 
ENDROOT
BRANCH   1  30
ATOM     30  O   LIG d   1       4.632  -1.564  -7.279  0.00  0.00    -0.482 OA
BRANCH  30  31
ATOM     31  C   LIG d   1       4.403  -0.154  -7.266  0.00  0.00     0.165 C 
ATOM     32  H   LIG d   1       3.718   0.111  -8.070  0.00  0.00     0.080 H 
ATOM     33  H   LIG d   1       5.349   0.369  -7.406  0.00  0.00     0.080 H 
BRANCH  31  34
ATOM     34  C   LIG d   1       3.801   0.244  -5.943  0.00  0.00     0.251 C 
ATOM     35  N   LIG d   1       4.436  -0.062  -4.794  0.00  0.00    -0.305 N 
ATOM     36  H   LIG d   1       5.280  -0.538  -4.819  0.00  0.00     0.149 HD
ATOM     37  O   LIG d   1       2.744   0.840  -5.912  0.00  0.00    -0.272 OA
BRANCH  35  38
ATOM     38  CA  LIG d   1       3.851   0.325  -3.507  0.00  0.00     0.062 C 
ATOM     39  HA  LIG d   1       3.016   1.004  -3.678  0.00  0.00     0.056 H 
BRANCH  38  40
ATOM     40  C   LIG d   1       3.352  -0.924  -2.779  0.00  0.00    -0.032 C 
ATOM     41  H   LIG d   1       3.198  -0.694  -1.724  0.00  0.00     0.028 H 
ATOM     42  H   LIG d   1       2.408  -1.248  -3.219  0.00  0.00     0.028 H 
BRANCH  40  43
ATOM     43  C   LIG d   1       4.388  -2.041  -2.912  0.00  0.00    -0.063 C 
ATOM     44  H   LIG d   1       4.644  -2.176  -3.963  0.00  0.00     0.023 H 
ATOM     45  H   LIG d   1       5.284  -1.774  -2.352  0.00  0.00     0.023 H 
ATOM     46  H   LIG d   1       3.975  -2.969  -2.517  0.00  0.00     0.023 H 
ENDBRANCH  40  43
ENDBRANCH  38  40
BRANCH  38  47
ATOM     47  C   LIG d   1       4.895   1.014  -2.667  0.00  0.00     0.062 C 
ATOM     48  O   LIG d   1       5.871   1.495  -3.192  0.00  0.00    -0.548 OA
ATOM     49  OXT LIG d   1       4.737   1.098  -1.337  0.00  0.00    -0.548 OA
ENDBRANCH  38  47
ENDBRANCH  35  38
ENDBRANCH  31  34
ENDBRANCH  30  31
ENDBRANCH   1  30
BRANCH  17  50
ATOM     50  C   LIG d   1       2.163  -2.849 -12.909  0.00  0.00    -0.025 C 
ATOM     51  H   LIG d   1       2.824  -3.575 -12.436  0.00  0.00     0.027 H 
ATOM     52  H   LIG d   1       1.759  -3.271 -13.829  0.00  0.00     0.027 H 
ATOM     53  H   LIG d   1       2.725  -1.944 -13.141  0.00  0.00     0.027 H 
ENDBRANCH  17  50
BRANCH  17  54
ATOM     54  C   LIG d   1      -0.033  -1.669 -12.692  0.00  0.00    -0.025 C 
ATOM     55  H   LIG d   1      -0.856  -1.443 -12.016  0.00  0.00     0.027 H 
ATOM     56  H   LIG d   1       0.421  -0.739 -13.036  0.00  0.00     0.027 H 
ATOM     57  H   LIG d   1      -0.409  -2.228 -13.549  0.00  0.00     0.027 H 
ENDBRANCH  17  54
TORSDOF 9
ENDMDL
MODEL 9
REMARK VINA RESULT:      -6.4      2.563      7.467
REMARK  9 active torsions:
REMARK  status: ('A' for Active; 'I' for Inactive)
REMARK    1  A    between atoms: C_1  and  C_2 
REMARK    2  A    between atoms: C_2  and  CA_3 
REMARK    3  A    between atoms: CA_3  and  C_5 
REMARK    4  A    between atoms: CA_3  and  N_7 
REMARK       I    between atoms: N_7  and  C_8 
REMARK    5  A    between atoms: C_8  and  C_10 
REMARK    6  A    between atoms: C_10  and  O_11 
REMARK    7  A    between atoms: O_11  and  C_12 
REMARK    8  A    between atoms: C_28  and  C_30 
REMARK    9  A    between atoms: C_28  and  C_31 
ROOT
ATOM      1  C   LIG d   1       5.492  -1.414  -7.087  0.00  0.00     0.136 A 
ATOM      2  C   LIG d   1       5.449  -0.481  -6.072  0.00  0.00     0.023 A 
ATOM      3  C   LIG d   1       5.021  -0.840  -4.794  0.00  0.00     0.131 A 
ATOM      4  C   LIG d   1       4.640  -2.144  -4.526  0.00  0.00     0.038 A 
ATOM      5  C   LIG d   1       4.683  -3.099  -5.534  0.00  0.00     0.149 A 
ATOM      6  C   LIG d   1       5.113  -2.741  -6.823  0.00  0.00     0.063 A 
ATOM      7  C   LIG d   1       5.160  -3.726  -7.844  0.00  0.00    -0.023 A 
ATOM      8  C   LIG d   1       4.783  -4.995  -7.549  0.00  0.00     0.041 A 
ATOM      9  C   LIG d   1       4.353  -5.309  -6.241  0.00  0.00     0.341 A 
ATOM     10  O   LIG d   1       4.013  -6.449  -5.981  0.00  0.00    -0.245 OA
ATOM     11  O   LIG d   1       4.313  -4.374  -5.278  0.00  0.00    -0.421 OA
ATOM     12  C   LIG d   1       4.911  -5.873  -8.776  0.00  0.00    -0.020 C 
ATOM     13  C   LIG d   1       5.822  -5.084  -9.742  0.00  0.00    -0.045 C 
ATOM     14  C   LIG d   1       5.578  -3.627  -9.294  0.00  0.00    -0.026 C 
ATOM     15  C   LIG d   1       4.170  -2.561  -3.155  0.00  0.00    -0.017 C 
ATOM     16  C   LIG d   1       4.606  -1.520  -2.122  0.00  0.00    -0.009 C 
ATOM     17  C   LIG d   1       4.236  -0.130  -2.653  0.00  0.00     0.105 C 
ATOM     18  O   LIG d   1       5.001   0.120  -3.833  0.00  0.00    -0.486 OA
ATOM     19  H   LIG d   1       5.746   0.539  -6.271  0.00  0.00     0.069 H 
ATOM     20  H   LIG d   1       5.373  -6.825  -8.513  0.00  0.00     0.032 H 
ATOM     21  H   LIG d   1       3.933  -6.038  -9.228  0.00  0.00     0.032 H 
ATOM     22  H   LIG d   1       6.867  -5.363  -9.606  0.00  0.00     0.027 H 
ATOM     23  H   LIG d   1       5.512  -5.232 -10.776  0.00  0.00     0.027 H 
ATOM     24  H   LIG d   1       6.495  -3.044  -9.385  0.00  0.00     0.031 H 
ATOM     25  H   LIG d   1       4.782  -3.176  -9.888  0.00  0.00     0.031 H 
ATOM     26  H   LIG d   1       3.083  -2.640  -3.153  0.00  0.00     0.032 H 
ATOM     27  H   LIG d   1       4.605  -3.528  -2.902  0.00  0.00     0.032 H 
ATOM     28  H   LIG d   1       4.093  -1.701  -1.178  0.00  0.00     0.031 H 
ATOM     29  H   LIG d   1       5.685  -1.580  -1.971  0.00  0.00     0.031 H 
ENDROOT
BRANCH   1  30
ATOM     30  O   LIG d   1       5.904  -1.054  -8.329  0.00  0.00    -0.482 OA
BRANCH  30  31
ATOM     31  C   LIG d   1       5.761   0.322  -8.687  0.00  0.00     0.165 C 
ATOM     32  H   LIG d   1       6.745   0.755  -8.862  0.00  0.00     0.080 H 
ATOM     33  H   LIG d   1       5.266   0.858  -7.877  0.00  0.00     0.080 H 
BRANCH  31  34
ATOM     34  C   LIG d   1       4.933   0.431  -9.941  0.00  0.00     0.251 C 
ATOM     35  N   LIG d   1       5.016  -0.524 -10.889  0.00  0.00    -0.305 N 
ATOM     36  H   LIG d   1       5.607  -1.282 -10.763  0.00  0.00     0.149 HD
ATOM     37  O   LIG d   1       4.193   1.379 -10.099  0.00  0.00    -0.272 OA
BRANCH  35  38
ATOM     38  CA  LIG d   1       4.211  -0.418 -12.109  0.00  0.00     0.062 C 
ATOM     39  HA  LIG d   1       3.872   0.610 -12.232  0.00  0.00     0.056 H 
BRANCH  38  40
ATOM     40  C   LIG d   1       5.059  -0.824 -13.315  0.00  0.00    -0.032 C 
ATOM     41  H   LIG d   1       6.009  -0.291 -13.288  0.00  0.00     0.028 H 
ATOM     42  H   LIG d   1       5.246  -1.898 -13.282  0.00  0.00     0.028 H 
BRANCH  40  43
ATOM     43  C   LIG d   1       4.314  -0.475 -14.605  0.00  0.00    -0.063 C 
ATOM     44  H   LIG d   1       3.263  -0.748 -14.502  0.00  0.00     0.023 H 
ATOM     45  H   LIG d   1       4.394   0.596 -14.792  0.00  0.00     0.023 H 
ATOM     46  H   LIG d   1       4.752  -1.024 -15.438  0.00  0.00     0.023 H 
ENDBRANCH  40  43
ENDBRANCH  38  40
BRANCH  38  47
ATOM     47  C   LIG d   1       3.017  -1.332 -12.003  0.00  0.00     0.062 C 
ATOM     48  O   LIG d   1       3.171  -2.530 -11.998  0.00  0.00    -0.548 OA
ATOM     49  OXT LIG d   1       1.782  -0.813 -11.909  0.00  0.00    -0.548 OA
ENDBRANCH  38  47
ENDBRANCH  35  38
ENDBRANCH  31  34
ENDBRANCH  30  31
ENDBRANCH   1  30
BRANCH  17  50
ATOM     50  C   LIG d   1       2.743  -0.088  -2.988  0.00  0.00    -0.025 C 
ATOM     51  H   LIG d   1       2.615  -0.003  -4.067  0.00  0.00     0.027 H 
ATOM     52  H   LIG d   1       2.266  -1.002  -2.636  0.00  0.00     0.027 H 
ATOM     53  H   LIG d   1       2.286   0.773  -2.500  0.00  0.00     0.027 H 
ENDBRANCH  17  50
BRANCH  17  54
ATOM     54  C   LIG d   1       4.557   0.930  -1.597  0.00  0.00    -0.025 C 
ATOM     55  H   LIG d   1       4.414   1.922  -2.023  0.00  0.00     0.027 H 
ATOM     56  H   LIG d   1       3.895   0.802  -0.740  0.00  0.00     0.027 H 
ATOM     57  H   LIG d   1       5.593   0.819  -1.275  0.00  0.00     0.027 H 
ENDBRANCH  17  54
TORSDOF 9
ENDMDL
