MODEL 1
REMARK VINA RESULT:      -4.1      0.000      0.000
REMARK  4 active torsions:
REMARK  status: ('A' for Active; 'I' for Inactive)
REMARK    1  A    between atoms: C_1  and  C_2 
REMARK    2  A    between atoms: C_2  and  C_3 
REMARK    3  A    between atoms: C_3  and  N_4 
REMARK    4  A    between atoms: C_7  and  N_8 
ROOT
ATOM      1  N   LIG d   1       5.323  -0.559  -3.626  0.00  0.00    -0.353 N 
ATOM      2  C   LIG d   1       5.252  -0.451  -4.979  0.00  0.00     0.006 A 
ATOM      3  C   LIG d   1       4.872  -1.491  -5.746  0.00  0.00    -0.021 A 
ATOM      4  C   LIG d   1       4.521  -2.755  -5.087  0.00  0.00     0.058 A 
ATOM      5  C   LIG d   1       4.612  -2.808  -3.623  0.00  0.00    -0.021 A 
ATOM      6  C   LIG d   1       5.009  -1.704  -2.962  0.00  0.00     0.006 A 
ATOM      7  H   LIG d   1       5.510   0.487  -5.449  0.00  0.00     0.081 H 
ATOM      8  H   LIG d   1       4.823  -1.396  -6.820  0.00  0.00     0.065 H 
ATOM      9  H   LIG d   1       4.366  -3.712  -3.086  0.00  0.00     0.065 H 
ATOM     10  H   LIG d   1       5.081  -1.727  -1.885  0.00  0.00     0.081 H 
ENDROOT
BRANCH   1  11
ATOM     11  C   LIG d   1       5.749   0.608  -2.850  0.00  0.00     0.022 C 
ATOM     12  H   LIG d   1       5.842   1.469  -3.511  0.00  0.00     0.049 H 
ATOM     13  H   LIG d   1       6.713   0.402  -2.384  0.00  0.00     0.049 H 
BRANCH  11  14
ATOM     14  C   LIG d   1       4.711   0.907  -1.766  0.00  0.00    -0.038 C 
ATOM     15  H   LIG d   1       4.465  -0.013  -1.236  0.00  0.00     0.028 H 
ATOM     16  H   LIG d   1       5.119   1.634  -1.064  0.00  0.00     0.028 H 
BRANCH  14  17
ATOM     17  C   LIG d   1       3.447   1.475  -2.413  0.00  0.00    -0.064 C 
ATOM     18  H   LIG d   1       2.743   0.666  -2.607  0.00  0.00     0.023 H 
ATOM     19  H   LIG d   1       2.990   2.202  -1.741  0.00  0.00     0.023 H 
ATOM     20  H   LIG d   1       3.708   1.962  -3.352  0.00  0.00     0.023 H 
ENDBRANCH  14  17
ENDBRANCH  11  14
ENDBRANCH   1  11
BRANCH   4  21
ATOM     21  N   LIG d   1       4.137  -3.808  -5.788  0.00  0.00    -0.300 NA
ATOM     22  H   LIG d   1       3.193  -3.998  -5.904  0.00  0.00     0.187 HD
ENDBRANCH   4  21
TORSDOF 4
ENDMDL
MODEL 2
REMARK VINA RESULT:      -4.1      2.260      2.875
REMARK  4 active torsions:
REMARK  status: ('A' for Active; 'I' for Inactive)
REMARK    1  A    between atoms: C_1  and  C_2 
REMARK    2  A    between atoms: C_2  and  C_3 
REMARK    3  A    between atoms: C_3  and  N_4 
REMARK    4  A    between atoms: C_7  and  N_8 
ROOT
ATOM      1  N   LIG d   1       3.298  -0.567  -4.233  0.00  0.00    -0.353 N 
ATOM      2  C   LIG d   1       4.319  -1.318  -4.724  0.00  0.00     0.006 A 
ATOM      3  C   LIG d   1       4.660  -1.272  -6.026  0.00  0.00    -0.021 A 
ATOM      4  C   LIG d   1       3.907  -0.379  -6.916  0.00  0.00     0.058 A 
ATOM      5  C   LIG d   1       2.817   0.409  -6.327  0.00  0.00    -0.021 A 
ATOM      6  C   LIG d   1       2.566   0.277  -5.010  0.00  0.00     0.006 A 
ATOM      7  H   LIG d   1       4.867  -1.966  -4.056  0.00  0.00     0.081 H 
ATOM      8  H   LIG d   1       5.470  -1.875  -6.406  0.00  0.00     0.065 H 
ATOM      9  H   LIG d   1       2.231   1.082  -6.934  0.00  0.00     0.065 H 
ATOM     10  H   LIG d   1       1.769   0.850  -4.561  0.00  0.00     0.081 H 
ENDROOT
BRANCH   1  11
ATOM     11  C   LIG d   1       2.974  -0.667  -2.809  0.00  0.00     0.022 C 
ATOM     12  H   LIG d   1       2.493  -1.625  -2.612  0.00  0.00     0.049 H 
ATOM     13  H   LIG d   1       2.298   0.142  -2.532  0.00  0.00     0.049 H 
BRANCH  11  14
ATOM     14  C   LIG d   1       4.260  -0.562  -1.985  0.00  0.00    -0.038 C 
ATOM     15  H   LIG d   1       4.130  -1.093  -1.042  0.00  0.00     0.028 H 
ATOM     16  H   LIG d   1       5.086  -1.004  -2.542  0.00  0.00     0.028 H 
BRANCH  14  17
ATOM     17  C   LIG d   1       4.565   0.910  -1.702  0.00  0.00    -0.064 C 
ATOM     18  H   LIG d   1       5.247   1.292  -2.461  0.00  0.00     0.023 H 
ATOM     19  H   LIG d   1       3.638   1.485  -1.725  0.00  0.00     0.023 H 
ATOM     20  H   LIG d   1       5.026   1.003  -0.719  0.00  0.00     0.023 H 
ENDBRANCH  14  17
ENDBRANCH  11  14
ENDBRANCH   1  11
BRANCH   4  21
ATOM     21  N   LIG d   1       4.198  -0.290  -8.202  0.00  0.00    -0.300 NA
ATOM     22  H   LIG d   1       4.127   0.562  -8.659  0.00  0.00     0.187 HD
ENDBRANCH   4  21
TORSDOF 4
ENDMDL
MODEL 3
REMARK VINA RESULT:      -4.0      1.599      1.897
REMARK  4 active torsions:
REMARK  status: ('A' for Active; 'I' for Inactive)
REMARK    1  A    between atoms: C_1  and  C_2 
REMARK    2  A    between atoms: C_2  and  C_3 
REMARK    3  A    between atoms: C_3  and  N_4 
REMARK    4  A    between atoms: C_7  and  N_8 
ROOT
ATOM      1  N   LIG d   1       5.061  -1.582  -2.808  0.00  0.00    -0.353 N 
ATOM      2  C   LIG d   1       6.368  -1.288  -3.034  0.00  0.00     0.006 A 
ATOM      3  C   LIG d   1       7.085  -1.950  -3.963  0.00  0.00    -0.021 A 
ATOM      4  C   LIG d   1       6.420  -3.001  -4.743  0.00  0.00     0.058 A 
ATOM      5  C   LIG d   1       5.005  -3.269  -4.456  0.00  0.00    -0.021 A 
ATOM      6  C   LIG d   1       4.393  -2.545  -3.500  0.00  0.00     0.006 A 
ATOM      7  H   LIG d   1       6.843  -0.509  -2.455  0.00  0.00     0.081 H 
ATOM      8  H   LIG d   1       8.124  -1.711  -4.132  0.00  0.00     0.065 H 
ATOM      9  H   LIG d   1       4.466  -4.031  -4.999  0.00  0.00     0.065 H 
ATOM     10  H   LIG d   1       3.353  -2.730  -3.278  0.00  0.00     0.081 H 
ENDROOT
BRANCH   1  11
ATOM     11  C   LIG d   1       4.339  -0.829  -1.780  0.00  0.00     0.022 C 
ATOM     12  H   LIG d   1       4.594  -1.223  -0.796  0.00  0.00     0.049 H 
ATOM     13  H   LIG d   1       3.266  -0.928  -1.944  0.00  0.00     0.049 H 
BRANCH  11  14
ATOM     14  C   LIG d   1       4.733   0.647  -1.858  0.00  0.00    -0.038 C 
ATOM     15  H   LIG d   1       4.873   1.038  -0.850  0.00  0.00     0.028 H 
ATOM     16  H   LIG d   1       5.662   0.746  -2.420  0.00  0.00     0.028 H 
BRANCH  14  17
ATOM     17  C   LIG d   1       3.626   1.434  -2.560  0.00  0.00    -0.064 C 
ATOM     18  H   LIG d   1       3.384   2.322  -1.976  0.00  0.00     0.023 H 
ATOM     19  H   LIG d   1       3.965   1.734  -3.552  0.00  0.00     0.023 H 
ATOM     20  H   LIG d   1       2.739   0.808  -2.654  0.00  0.00     0.023 H 
ENDBRANCH  14  17
ENDBRANCH  11  14
ENDBRANCH   1  11
BRANCH   4  21
ATOM     21  N   LIG d   1       7.072  -3.681  -5.670  0.00  0.00    -0.300 NA
ATOM     22  H   LIG d   1       6.631  -4.402  -6.144  0.00  0.00     0.187 HD
ENDBRANCH   4  21
TORSDOF 4
ENDMDL
MODEL 4
REMARK VINA RESULT:      -3.8      2.418      3.458
REMARK  4 active torsions:
REMARK  status: ('A' for Active; 'I' for Inactive)
REMARK    1  A    between atoms: C_1  and  C_2 
REMARK    2  A    between atoms: C_2  and  C_3 
REMARK    3  A    between atoms: C_3  and  N_4 
REMARK    4  A    between atoms: C_7  and  N_8 
ROOT
ATOM      1  N   LIG d   1       5.479  -0.403  -2.704  0.00  0.00    -0.353 N 
ATOM      2  C   LIG d   1       6.121  -1.527  -3.119  0.00  0.00     0.006 A 
ATOM      3  C   LIG d   1       7.254  -1.460  -3.843  0.00  0.00    -0.021 A 
ATOM      4  C   LIG d   1       7.798  -0.136  -4.172  0.00  0.00     0.058 A 
ATOM      5  C   LIG d   1       7.062   1.040  -3.692  0.00  0.00    -0.021 A 
ATOM      6  C   LIG d   1       5.936   0.848  -2.979  0.00  0.00     0.006 A 
ATOM      7  H   LIG d   1       5.711  -2.494  -2.866  0.00  0.00     0.081 H 
ATOM      8  H   LIG d   1       7.754  -2.359  -4.171  0.00  0.00     0.065 H 
ATOM      9  H   LIG d   1       7.416   2.038  -3.904  0.00  0.00     0.065 H 
ATOM     10  H   LIG d   1       5.384   1.703  -2.619  0.00  0.00     0.081 H 
ENDROOT
BRANCH   1  11
ATOM     11  C   LIG d   1       4.247  -0.545  -1.925  0.00  0.00     0.022 C 
ATOM     12  H   LIG d   1       3.819   0.440  -1.741  0.00  0.00     0.049 H 
ATOM     13  H   LIG d   1       4.473  -1.027  -0.974  0.00  0.00     0.049 H 
BRANCH  11  14
ATOM     14  C   LIG d   1       3.245  -1.399  -2.705  0.00  0.00    -0.038 C 
ATOM     15  H   LIG d   1       3.780  -2.173  -3.255  0.00  0.00     0.028 H 
ATOM     16  H   LIG d   1       2.546  -1.863  -2.010  0.00  0.00     0.028 H 
BRANCH  14  17
ATOM     17  C   LIG d   1       2.477  -0.514  -3.687  0.00  0.00    -0.064 C 
ATOM     18  H   LIG d   1       1.502  -0.266  -3.267  0.00  0.00     0.023 H 
ATOM     19  H   LIG d   1       3.038   0.403  -3.867  0.00  0.00     0.023 H 
ATOM     20  H   LIG d   1       2.342  -1.048  -4.628  0.00  0.00     0.023 H 
ENDBRANCH  14  17
ENDBRANCH  11  14
ENDBRANCH   1  11
BRANCH   4  21
ATOM     21  N   LIG d   1       8.909  -0.009  -4.876  0.00  0.00    -0.300 NA
ATOM     22  H   LIG d   1       9.268  -0.769  -5.359  0.00  0.00     0.187 HD
ENDBRANCH   4  21
TORSDOF 4
ENDMDL
MODEL 5
REMARK VINA RESULT:      -3.8      2.037      4.494
REMARK  4 active torsions:
REMARK  status: ('A' for Active; 'I' for Inactive)
REMARK    1  A    between atoms: C_1  and  C_2 
REMARK    2  A    between atoms: C_2  and  C_3 
REMARK    3  A    between atoms: C_3  and  N_4 
REMARK    4  A    between atoms: C_7  and  N_8 
ROOT
ATOM      1  N   LIG d   1       6.282  -1.307  -3.196  0.00  0.00    -0.353 N 
ATOM      2  C   LIG d   1       5.109  -1.763  -2.682  0.00  0.00     0.006 A 
ATOM      3  C   LIG d   1       4.150  -0.914  -2.266  0.00  0.00    -0.021 A 
ATOM      4  C   LIG d   1       4.390   0.529  -2.389  0.00  0.00     0.058 A 
ATOM      5  C   LIG d   1       5.675   0.959  -2.955  0.00  0.00    -0.021 A 
ATOM      6  C   LIG d   1       6.560   0.017  -3.333  0.00  0.00     0.006 A 
ATOM      7  H   LIG d   1       4.944  -2.828  -2.603  0.00  0.00     0.081 H 
ATOM      8  H   LIG d   1       3.223  -1.287  -1.856  0.00  0.00     0.065 H 
ATOM      9  H   LIG d   1       5.905   2.008  -3.068  0.00  0.00     0.065 H 
ATOM     10  H   LIG d   1       7.509   0.318  -3.752  0.00  0.00     0.081 H 
ENDROOT
BRANCH   1  11
ATOM     11  C   LIG d   1       7.287  -2.283  -3.625  0.00  0.00     0.022 C 
ATOM     12  H   LIG d   1       7.671  -2.814  -2.755  0.00  0.00     0.049 H 
ATOM     13  H   LIG d   1       8.105  -1.765  -4.125  0.00  0.00     0.049 H 
BRANCH  11  14
ATOM     14  C   LIG d   1       6.648  -3.282  -4.592  0.00  0.00    -0.038 C 
ATOM     15  H   LIG d   1       5.770  -3.728  -4.125  0.00  0.00     0.028 H 
ATOM     16  H   LIG d   1       6.352  -2.765  -5.505  0.00  0.00     0.028 H 
BRANCH  14  17
ATOM     17  C   LIG d   1       7.658  -4.379  -4.932  0.00  0.00    -0.064 C 
ATOM     18  H   LIG d   1       8.051  -4.809  -4.010  0.00  0.00     0.023 H 
ATOM     19  H   LIG d   1       7.167  -5.158  -5.515  0.00  0.00     0.023 H 
ATOM     20  H   LIG d   1       8.476  -3.952  -5.511  0.00  0.00     0.023 H 
ENDBRANCH  14  17
ENDBRANCH  11  14
ENDBRANCH   1  11
BRANCH   4  21
ATOM     21  N   LIG d   1       3.484   1.409  -2.000  0.00  0.00    -0.300 NA
ATOM     22  H   LIG d   1       2.657   1.108  -1.594  0.00  0.00     0.187 HD
ENDBRANCH   4  21
TORSDOF 4
ENDMDL
MODEL 6
REMARK VINA RESULT:      -3.7      2.099      4.336
REMARK  4 active torsions:
REMARK  status: ('A' for Active; 'I' for Inactive)
REMARK    1  A    between atoms: C_1  and  C_2 
REMARK    2  A    between atoms: C_2  and  C_3 
REMARK    3  A    between atoms: C_3  and  N_4 
REMARK    4  A    between atoms: C_7  and  N_8 
ROOT
ATOM      1  N   LIG d   1       4.230  -0.241  -5.105  0.00  0.00    -0.353 N 
ATOM      2  C   LIG d   1       3.153   0.174  -4.386  0.00  0.00     0.006 A 
ATOM      3  C   LIG d   1       3.283   0.613  -3.120  0.00  0.00    -0.021 A 
ATOM      4  C   LIG d   1       4.625   0.645  -2.524  0.00  0.00     0.058 A 
ATOM      5  C   LIG d   1       5.748   0.189  -3.351  0.00  0.00    -0.021 A 
ATOM      6  C   LIG d   1       5.495  -0.233  -4.605  0.00  0.00     0.006 A 
ATOM      7  H   LIG d   1       2.173   0.149  -4.840  0.00  0.00     0.081 H 
ATOM      8  H   LIG d   1       2.421   0.936  -2.557  0.00  0.00     0.065 H 
ATOM      9  H   LIG d   1       6.756   0.191  -2.964  0.00  0.00     0.065 H 
ATOM     10  H   LIG d   1       6.311  -0.571  -5.226  0.00  0.00     0.081 H 
ENDROOT
BRANCH   1  11
ATOM     11  C   LIG d   1       4.021  -0.711  -6.476  0.00  0.00     0.022 C 
ATOM     12  H   LIG d   1       3.766  -1.771  -6.461  0.00  0.00     0.049 H 
ATOM     13  H   LIG d   1       4.934  -0.565  -7.054  0.00  0.00     0.049 H 
BRANCH  11  14
ATOM     14  C   LIG d   1       2.879   0.079  -7.118  0.00  0.00    -0.038 C 
ATOM     15  H   LIG d   1       2.042  -0.590  -7.317  0.00  0.00     0.028 H 
ATOM     16  H   LIG d   1       2.559   0.871  -6.440  0.00  0.00     0.028 H 
BRANCH  14  17
ATOM     17  C   LIG d   1       3.362   0.696  -8.432  0.00  0.00    -0.064 C 
ATOM     18  H   LIG d   1       3.731   1.705  -8.246  0.00  0.00     0.023 H 
ATOM     19  H   LIG d   1       4.165   0.086  -8.846  0.00  0.00     0.023 H 
ATOM     20  H   LIG d   1       2.534   0.737  -9.139  0.00  0.00     0.023 H 
ENDBRANCH  14  17
ENDBRANCH  11  14
ENDBRANCH   1  11
BRANCH   4  21
ATOM     21  N   LIG d   1       4.813   1.069  -1.286  0.00  0.00    -0.300 NA
ATOM     22  H   LIG d   1       4.682   0.464  -0.540  0.00  0.00     0.187 HD
ENDBRANCH   4  21
TORSDOF 4
ENDMDL
MODEL 7
REMARK VINA RESULT:      -3.7      2.096      2.479
REMARK  4 active torsions:
REMARK  status: ('A' for Active; 'I' for Inactive)
REMARK    1  A    between atoms: C_1  and  C_2 
REMARK    2  A    between atoms: C_2  and  C_3 
REMARK    3  A    between atoms: C_3  and  N_4 
REMARK    4  A    between atoms: C_7  and  N_8 
ROOT
ATOM      1  N   LIG d   1       5.192  -1.955  -3.738  0.00  0.00    -0.353 N 
ATOM      2  C   LIG d   1       4.863  -2.990  -4.556  0.00  0.00     0.006 A 
ATOM      3  C   LIG d   1       5.799  -3.835  -5.028  0.00  0.00    -0.021 A 
ATOM      4  C   LIG d   1       7.197  -3.624  -4.631  0.00  0.00     0.058 A 
ATOM      5  C   LIG d   1       7.489  -2.493  -3.742  0.00  0.00    -0.021 A 
ATOM      6  C   LIG d   1       6.469  -1.712  -3.337  0.00  0.00     0.006 A 
ATOM      7  H   LIG d   1       3.829  -3.135  -4.837  0.00  0.00     0.081 H 
ATOM      8  H   LIG d   1       5.528  -4.651  -5.681  0.00  0.00     0.065 H 
ATOM      9  H   LIG d   1       8.498  -2.291  -3.418  0.00  0.00     0.065 H 
ATOM     10  H   LIG d   1       6.667  -0.876  -2.683  0.00  0.00     0.081 H 
ENDROOT
BRANCH   1  11
ATOM     11  C   LIG d   1       4.127  -1.069  -3.264  0.00  0.00     0.022 C 
ATOM     12  H   LIG d   1       3.172  -1.594  -3.305  0.00  0.00     0.049 H 
ATOM     13  H   LIG d   1       4.082  -0.183  -3.898  0.00  0.00     0.049 H 
BRANCH  11  14
ATOM     14  C   LIG d   1       4.416  -0.649  -1.821  0.00  0.00    -0.038 C 
ATOM     15  H   LIG d   1       3.629  -1.026  -1.169  0.00  0.00     0.028 H 
ATOM     16  H   LIG d   1       5.376  -1.061  -1.509  0.00  0.00     0.028 H 
BRANCH  14  17
ATOM     17  C   LIG d   1       4.464   0.877  -1.734  0.00  0.00    -0.064 C 
ATOM     18  H   LIG d   1       5.502   1.209  -1.720  0.00  0.00     0.023 H 
ATOM     19  H   LIG d   1       3.957   1.307  -2.599  0.00  0.00     0.023 H 
ATOM     20  H   LIG d   1       3.965   1.204  -0.822  0.00  0.00     0.023 H 
ENDBRANCH  14  17
ENDBRANCH  11  14
ENDBRANCH   1  11
BRANCH   4  21
ATOM     21  N   LIG d   1       8.158  -4.424  -5.060  0.00  0.00    -0.300 NA
ATOM     22  H   LIG d   1       9.021  -4.057  -5.308  0.00  0.00     0.187 HD
ENDBRANCH   4  21
TORSDOF 4
ENDMDL
MODEL 8
REMARK VINA RESULT:      -3.3      3.701      4.537
REMARK  4 active torsions:
REMARK  status: ('A' for Active; 'I' for Inactive)
REMARK    1  A    between atoms: C_1  and  C_2 
REMARK    2  A    between atoms: C_2  and  C_3 
REMARK    3  A    between atoms: C_3  and  N_4 
REMARK    4  A    between atoms: C_7  and  N_8 
ROOT
ATOM      1  N   LIG d   1       4.035  -0.100  -6.687  0.00  0.00    -0.353 N 
ATOM      2  C   LIG d   1       5.203  -0.127  -7.382  0.00  0.00     0.006 A 
ATOM      3  C   LIG d   1       5.290   0.380  -8.626  0.00  0.00    -0.021 A 
ATOM      4  C   LIG d   1       4.090   0.980  -9.224  0.00  0.00     0.058 A 
ATOM      5  C   LIG d   1       2.860   0.983  -8.422  0.00  0.00    -0.021 A 
ATOM      6  C   LIG d   1       2.893   0.442  -7.190  0.00  0.00     0.006 A 
ATOM      7  H   LIG d   1       6.079  -0.568  -6.927  0.00  0.00     0.081 H 
ATOM      8  H   LIG d   1       6.222   0.350  -9.171  0.00  0.00     0.065 H 
ATOM      9  H   LIG d   1       1.948   1.411  -8.811  0.00  0.00     0.065 H 
ATOM     10  H   LIG d   1       1.996   0.437  -6.588  0.00  0.00     0.081 H 
ENDROOT
BRANCH   1  11
ATOM     11  C   LIG d   1       4.006  -0.674  -5.341  0.00  0.00     0.022 C 
ATOM     12  H   LIG d   1       4.982  -0.552  -4.872  0.00  0.00     0.049 H 
ATOM     13  H   LIG d   1       3.763  -1.735  -5.403  0.00  0.00     0.049 H 
BRANCH  11  14
ATOM     14  C   LIG d   1       2.944   0.043  -4.503  0.00  0.00    -0.038 C 
ATOM     15  H   LIG d   1       3.291   1.048  -4.261  0.00  0.00     0.028 H 
ATOM     16  H   LIG d   1       2.015   0.105  -5.069  0.00  0.00     0.028 H 
BRANCH  14  17
ATOM     17  C   LIG d   1       2.703  -0.737  -3.210  0.00  0.00    -0.064 C 
ATOM     18  H   LIG d   1       1.632  -0.796  -3.015  0.00  0.00     0.023 H 
ATOM     19  H   LIG d   1       3.109  -1.744  -3.311  0.00  0.00     0.023 H 
ATOM     20  H   LIG d   1       3.196  -0.228  -2.381  0.00  0.00     0.023 H 
ENDBRANCH  14  17
ENDBRANCH  11  14
ENDBRANCH   1  11
BRANCH   4  21
ATOM     21  N   LIG d   1       4.117   1.497 -10.440  0.00  0.00    -0.300 NA
ATOM     22  H   LIG d   1       3.619   1.076 -11.158  0.00  0.00     0.187 HD
ENDBRANCH   4  21
TORSDOF 4
ENDMDL
MODEL 9
REMARK VINA RESULT:      -3.3      9.409     11.155
REMARK  4 active torsions:
REMARK  status: ('A' for Active; 'I' for Inactive)
REMARK    1  A    between atoms: C_1  and  C_2 
REMARK    2  A    between atoms: C_2  and  C_3 
REMARK    3  A    between atoms: C_3  and  N_4 
REMARK    4  A    between atoms: C_7  and  N_8 
ROOT
ATOM      1  N   LIG d   1       9.755   8.256  -0.725  0.00  0.00    -0.353 N 
ATOM      2  C   LIG d   1       9.380   7.326  -1.642  0.00  0.00     0.006 A 
ATOM      3  C   LIG d   1       9.927   6.095  -1.656  0.00  0.00    -0.021 A 
ATOM      4  C   LIG d   1      10.940   5.767  -0.644  0.00  0.00     0.058 A 
ATOM      5  C   LIG d   1      11.300   6.812   0.322  0.00  0.00    -0.021 A 
ATOM      6  C   LIG d   1      10.687   8.009   0.234  0.00  0.00     0.006 A 
ATOM      7  H   LIG d   1       8.630   7.580  -2.377  0.00  0.00     0.081 H 
ATOM      8  H   LIG d   1       9.625   5.365  -2.391  0.00  0.00     0.065 H 
ATOM      9  H   LIG d   1      12.038   6.627   1.087  0.00  0.00     0.065 H 
ATOM     10  H   LIG d   1      10.941   8.788   0.938  0.00  0.00     0.081 H 
ENDROOT
BRANCH   1  11
ATOM     11  C   LIG d   1       9.126   9.577  -0.767  0.00  0.00     0.022 C 
ATOM     12  H   LIG d   1       8.076   9.489  -0.487  0.00  0.00     0.049 H 
ATOM     13  H   LIG d   1       9.199   9.983  -1.777  0.00  0.00     0.049 H 
BRANCH  11  14
ATOM     14  C   LIG d   1       9.839  10.514   0.211  0.00  0.00    -0.038 C 
ATOM     15  H   LIG d   1       9.126  10.873   0.953  0.00  0.00     0.028 H 
ATOM     16  H   LIG d   1      10.644   9.974   0.709  0.00  0.00     0.028 H 
BRANCH  14  17
ATOM     17  C   LIG d   1      10.420  11.704  -0.555  0.00  0.00    -0.064 C 
ATOM     18  H   LIG d   1       9.752  12.560  -0.457  0.00  0.00     0.023 H 
ATOM     19  H   LIG d   1      11.397  11.958  -0.145  0.00  0.00     0.023 H 
ATOM     20  H   LIG d   1      10.523  11.442  -1.608  0.00  0.00     0.023 H 
ENDBRANCH  14  17
ENDBRANCH  11  14
ENDBRANCH   1  11
BRANCH   4  21
ATOM     21  N   LIG d   1      11.508   4.575  -0.607  0.00  0.00    -0.300 NA
ATOM     22  H   LIG d   1      11.046   3.804  -0.970  0.00  0.00     0.187 HD
ENDBRANCH   4  21
TORSDOF 4
ENDMDL
MODEL 10
REMARK VINA RESULT:      -3.2      4.029      5.683
REMARK  4 active torsions:
REMARK  status: ('A' for Active; 'I' for Inactive)
REMARK    1  A    between atoms: C_1  and  C_2 
REMARK    2  A    between atoms: C_2  and  C_3 
REMARK    3  A    between atoms: C_3  and  N_4 
REMARK    4  A    between atoms: C_7  and  N_8 
ROOT
ATOM      1  N   LIG d   1       4.565   0.917  -8.445  0.00  0.00    -0.353 N 
ATOM      2  C   LIG d   1       5.576   0.247  -7.832  0.00  0.00     0.006 A 
ATOM      3  C   LIG d   1       5.358  -0.493  -6.728  0.00  0.00    -0.021 A 
ATOM      4  C   LIG d   1       3.992  -0.573  -6.197  0.00  0.00     0.058 A 
ATOM      5  C   LIG d   1       2.942   0.169  -6.905  0.00  0.00    -0.021 A 
ATOM      6  C   LIG d   1       3.281   0.880  -7.998  0.00  0.00     0.006 A 
ATOM      7  H   LIG d   1       6.576   0.312  -8.238  0.00  0.00     0.081 H 
ATOM      8  H   LIG d   1       6.170  -1.018  -6.247  0.00  0.00     0.065 H 
ATOM      9  H   LIG d   1       1.919   0.146  -6.559  0.00  0.00     0.065 H 
ATOM     10  H   LIG d   1       2.520   1.431  -8.530  0.00  0.00     0.081 H 
ENDROOT
BRANCH   1  11
ATOM     11  C   LIG d   1       4.869   1.708  -9.639  0.00  0.00     0.022 C 
ATOM     12  H   LIG d   1       5.832   1.398 -10.045  0.00  0.00     0.049 H 
ATOM     13  H   LIG d   1       4.911   2.765  -9.373  0.00  0.00     0.049 H 
BRANCH  11  14
ATOM     14  C   LIG d   1       3.777   1.489 -10.689  0.00  0.00    -0.038 C 
ATOM     15  H   LIG d   1       2.839   1.246 -10.191  0.00  0.00     0.028 H 
ATOM     16  H   LIG d   1       3.653   2.398 -11.278  0.00  0.00     0.028 H 
BRANCH  14  17
ATOM     17  C   LIG d   1       4.180   0.336 -11.609  0.00  0.00    -0.064 C 
ATOM     18  H   LIG d   1       3.688  -0.580 -11.281  0.00  0.00     0.023 H 
ATOM     19  H   LIG d   1       3.878   0.564 -12.632  0.00  0.00     0.023 H 
ATOM     20  H   LIG d   1       5.261   0.202 -11.571  0.00  0.00     0.023 H 
ENDBRANCH  14  17
ENDBRANCH  11  14
ENDBRANCH   1  11
BRANCH   4  21
ATOM     21  N   LIG d   1       3.718  -1.287  -5.118  0.00  0.00    -0.300 NA
ATOM     22  H   LIG d   1       2.797  -1.480  -4.885  0.00  0.00     0.187 HD
ENDBRANCH   4  21
TORSDOF 4
ENDMDL
