MODEL 1
REMARK VINA RESULT:      -7.2      0.000      0.000
REMARK  6 active torsions:
REMARK  status: ('A' for Active; 'I' for Inactive)
REMARK    1  A    between atoms: C_1  and  N_2 
REMARK    2  A    between atoms: C_3  and  N_11 
REMARK    3  A    between atoms: N_7  and  C_10 
REMARK       I    between atoms: N_11  and  C_12 
REMARK    4  A    between atoms: C_12  and  C_14 
REMARK    5  A    between atoms: C_14  and  C_15 
REMARK    6  A    between atoms: C_14  and  C_19 
ROOT
ATOM      1  N   LIG d   1       3.973  -1.264  -7.258  0.00  0.00    -0.284 N 
ATOM      2  C   LIG d   1       3.732  -0.161  -6.474  0.00  0.00     0.114 A 
ATOM      3  C   LIG d   1       3.179   0.953  -7.034  0.00  0.00     0.042 A 
ATOM      4  C   LIG d   1       2.867   0.945  -8.405  0.00  0.00     0.258 A 
ATOM      5  O   LIG d   1       2.373   1.929  -8.928  0.00  0.00    -0.268 OA
ATOM      6  N   LIG d   1       3.119  -0.158  -9.138  0.00  0.00    -0.264 N 
ATOM      7  C   LIG d   1       3.670  -1.246  -8.569  0.00  0.00     0.333 A 
ATOM      8  O   LIG d   1       3.893  -2.229  -9.248  0.00  0.00    -0.246 OA
ATOM      9  H   LIG d   1       2.984   1.829  -6.434  0.00  0.00     0.071 H 
ENDROOT
BRANCH   2  10
ATOM     10  N   LIG d   1       4.048  -0.181  -5.132  0.00  0.00    -0.271 N 
ATOM     11  C   LIG d   1       3.067  -0.150  -4.209  0.00  0.00     0.239 C 
ATOM     12  O   LIG d   1       1.906  -0.198  -4.555  0.00  0.00    -0.275 OA
ATOM     13  H   LIG d   1       4.977  -0.217  -4.853  0.00  0.00     0.156 HD
BRANCH  11  14
ATOM     14  C   LIG d   1       3.413  -0.055  -2.745  0.00  0.00     0.224 C 
ATOM     15  H   LIG d   1       2.500   0.063  -2.162  0.00  0.00     0.057 H 
BRANCH  14  16
ATOM     16  C   LIG d   1       4.135  -1.331  -2.308  0.00  0.00     0.409 C 
ATOM     17  F   LIG d   1       5.182  -1.602  -3.196  0.00  0.00    -0.170 F 
ATOM     18  F   LIG d   1       4.650  -1.157  -1.019  0.00  0.00    -0.170 F 
ATOM     19  F   LIG d   1       3.233  -2.401  -2.310  0.00  0.00    -0.170 F 
ENDBRANCH  14  16
BRANCH  14  20
ATOM     20  C   LIG d   1       4.325   1.151  -2.514  0.00  0.00     0.409 C 
ATOM     21  F   LIG d   1       3.768   2.280  -3.123  0.00  0.00    -0.170 F 
ATOM     22  F   LIG d   1       4.457   1.380  -1.141  0.00  0.00    -0.170 F 
ATOM     23  F   LIG d   1       5.584   0.897  -3.069  0.00  0.00    -0.170 F 
ENDBRANCH  14  20
ENDBRANCH  11  14
ENDBRANCH   2  10
BRANCH   1  24
ATOM     24  C   LIG d   1       4.566  -2.464  -6.664  0.00  0.00     0.018 C 
ATOM     25  H   LIG d   1       4.706  -2.307  -5.594  0.00  0.00     0.046 H 
ATOM     26  H   LIG d   1       3.901  -3.314  -6.822  0.00  0.00     0.046 H 
ATOM     27  H   LIG d   1       5.530  -2.664  -7.131  0.00  0.00     0.046 H 
ENDBRANCH   1  24
BRANCH   6  28
ATOM     28  C   LIG d   1       2.794  -0.171 -10.566  0.00  0.00     0.020 C 
ATOM     29  H   LIG d   1       3.706  -0.305 -11.146  0.00  0.00     0.046 H 
ATOM     30  H   LIG d   1       2.108  -0.992 -10.775  0.00  0.00     0.046 H 
ATOM     31  H   LIG d   1       2.324   0.773 -10.842  0.00  0.00     0.046 H 
ENDBRANCH   6  28
TORSDOF 6
ENDMDL
MODEL 2
REMARK VINA RESULT:      -7.2      1.172      2.342
REMARK  6 active torsions:
REMARK  status: ('A' for Active; 'I' for Inactive)
REMARK    1  A    between atoms: C_1  and  N_2 
REMARK    2  A    between atoms: C_3  and  N_11 
REMARK    3  A    between atoms: N_7  and  C_10 
REMARK       I    between atoms: N_11  and  C_12 
REMARK    4  A    between atoms: C_12  and  C_14 
REMARK    5  A    between atoms: C_14  and  C_15 
REMARK    6  A    between atoms: C_14  and  C_19 
ROOT
ATOM      1  N   LIG d   1       3.969  -1.394  -7.362  0.00  0.00    -0.284 N 
ATOM      2  C   LIG d   1       3.530  -0.360  -6.571  0.00  0.00     0.114 A 
ATOM      3  C   LIG d   1       3.001   0.754  -7.153  0.00  0.00     0.042 A 
ATOM      4  C   LIG d   1       2.918   0.817  -8.556  0.00  0.00     0.258 A 
ATOM      5  O   LIG d   1       2.449   1.802  -9.099  0.00  0.00    -0.268 OA
ATOM      6  N   LIG d   1       3.360  -0.220  -9.295  0.00  0.00    -0.264 N 
ATOM      7  C   LIG d   1       3.883  -1.308  -8.702  0.00  0.00     0.333 A 
ATOM      8  O   LIG d   1       4.281  -2.230  -9.387  0.00  0.00    -0.246 OA
ATOM      9  H   LIG d   1       2.650   1.576  -6.547  0.00  0.00     0.071 H 
ENDROOT
BRANCH   2  10
ATOM     10  N   LIG d   1       3.623  -0.449  -5.198  0.00  0.00    -0.271 N 
ATOM     11  C   LIG d   1       4.763  -0.091  -4.576  0.00  0.00     0.239 C 
ATOM     12  O   LIG d   1       5.674   0.395  -5.211  0.00  0.00    -0.275 OA
ATOM     13  H   LIG d   1       2.867  -0.769  -4.680  0.00  0.00     0.156 HD
BRANCH  11  14
ATOM     14  C   LIG d   1       4.906  -0.296  -3.089  0.00  0.00     0.224 C 
ATOM     15  H   LIG d   1       5.960  -0.243  -2.815  0.00  0.00     0.057 H 
BRANCH  14  16
ATOM     16  C   LIG d   1       4.130   0.794  -2.347  0.00  0.00     0.409 C 
ATOM     17  F   LIG d   1       4.215   1.995  -3.060  0.00  0.00    -0.170 F 
ATOM     18  F   LIG d   1       2.789   0.414  -2.231  0.00  0.00    -0.170 F 
ATOM     19  F   LIG d   1       4.678   0.969  -1.071  0.00  0.00    -0.170 F 
ENDBRANCH  14  16
BRANCH  14  20
ATOM     20  C   LIG d   1       4.349  -1.669  -2.709  0.00  0.00     0.409 C 
ATOM     21  F   LIG d   1       3.010  -1.754  -3.101  0.00  0.00    -0.170 F 
ATOM     22  F   LIG d   1       5.088  -2.667  -3.353  0.00  0.00    -0.170 F 
ATOM     23  F   LIG d   1       4.440  -1.841  -1.323  0.00  0.00    -0.170 F 
ENDBRANCH  14  20
ENDBRANCH  11  14
ENDBRANCH   2  10
BRANCH   1  24
ATOM     24  C   LIG d   1       4.537  -2.593  -6.743  0.00  0.00     0.018 C 
ATOM     25  H   LIG d   1       4.293  -2.604  -5.681  0.00  0.00     0.046 H 
ATOM     26  H   LIG d   1       4.121  -3.480  -7.221  0.00  0.00     0.046 H 
ATOM     27  H   LIG d   1       5.621  -2.588  -6.867  0.00  0.00     0.046 H 
ENDBRANCH   1  24
BRANCH   6  28
ATOM     28  C   LIG d   1       3.274  -0.159 -10.756  0.00  0.00     0.020 C 
ATOM     29  H   LIG d   1       2.598  -0.934 -11.114  0.00  0.00     0.046 H 
ATOM     30  H   LIG d   1       2.896   0.819 -11.057  0.00  0.00     0.046 H 
ATOM     31  H   LIG d   1       4.264  -0.313 -11.186  0.00  0.00     0.046 H 
ENDBRANCH   6  28
TORSDOF 6
ENDMDL
MODEL 3
REMARK VINA RESULT:      -6.9      1.778      2.734
REMARK  6 active torsions:
REMARK  status: ('A' for Active; 'I' for Inactive)
REMARK    1  A    between atoms: C_1  and  N_2 
REMARK    2  A    between atoms: C_3  and  N_11 
REMARK    3  A    between atoms: N_7  and  C_10 
REMARK       I    between atoms: N_11  and  C_12 
REMARK    4  A    between atoms: C_12  and  C_14 
REMARK    5  A    between atoms: C_14  and  C_15 
REMARK    6  A    between atoms: C_14  and  C_19 
ROOT
ATOM      1  N   LIG d   1       5.557   0.393  -7.751  0.00  0.00    -0.284 N 
ATOM      2  C   LIG d   1       4.608  -0.241  -6.986  0.00  0.00     0.114 A 
ATOM      3  C   LIG d   1       3.375  -0.489  -7.515  0.00  0.00     0.042 A 
ATOM      4  C   LIG d   1       3.105  -0.087  -8.835  0.00  0.00     0.258 A 
ATOM      5  O   LIG d   1       2.011  -0.297  -9.329  0.00  0.00    -0.268 OA
ATOM      6  N   LIG d   1       4.065   0.531  -9.551  0.00  0.00    -0.264 N 
ATOM      7  C   LIG d   1       5.274   0.771  -9.011  0.00  0.00     0.333 A 
ATOM      8  O   LIG d   1       6.123   1.335  -9.672  0.00  0.00    -0.246 OA
ATOM      9  H   LIG d   1       2.616  -0.986  -6.928  0.00  0.00     0.071 H 
ENDROOT
BRANCH   2  10
ATOM     10  N   LIG d   1       4.900  -0.624  -5.694  0.00  0.00    -0.271 N 
ATOM     11  C   LIG d   1       4.248  -0.057  -4.660  0.00  0.00     0.239 C 
ATOM     12  O   LIG d   1       3.342   0.722  -4.867  0.00  0.00    -0.275 OA
ATOM     13  H   LIG d   1       5.574  -1.303  -5.530  0.00  0.00     0.156 HD
BRANCH  11  14
ATOM     14  C   LIG d   1       4.647  -0.390  -3.245  0.00  0.00     0.224 C 
ATOM     15  H   LIG d   1       5.709  -0.630  -3.213  0.00  0.00     0.057 H 
BRANCH  14  16
ATOM     16  C   LIG d   1       4.367   0.811  -2.340  0.00  0.00     0.409 C 
ATOM     17  F   LIG d   1       4.868   0.555  -1.058  0.00  0.00    -0.170 F 
ATOM     18  F   LIG d   1       4.992   1.946  -2.866  0.00  0.00    -0.170 F 
ATOM     19  F   LIG d   1       2.987   1.029  -2.267  0.00  0.00    -0.170 F 
ENDBRANCH  14  16
BRANCH  14  20
ATOM     20  C   LIG d   1       3.838  -1.595  -2.759  0.00  0.00     0.409 C 
ATOM     21  F   LIG d   1       4.105  -2.697  -3.577  0.00  0.00    -0.170 F 
ATOM     22  F   LIG d   1       4.197  -1.896  -1.441  0.00  0.00    -0.170 F 
ATOM     23  F   LIG d   1       2.473  -1.293  -2.813  0.00  0.00    -0.170 F 
ENDBRANCH  14  20
ENDBRANCH  11  14
ENDBRANCH   2  10
BRANCH   1  24
ATOM     24  C   LIG d   1       6.883   0.661  -7.191  0.00  0.00     0.018 C 
ATOM     25  H   LIG d   1       7.366   1.452  -7.764  0.00  0.00     0.046 H 
ATOM     26  H   LIG d   1       6.781   0.976  -6.152  0.00  0.00     0.046 H 
ATOM     27  H   LIG d   1       7.489  -0.245  -7.239  0.00  0.00     0.046 H 
ENDBRANCH   1  24
BRANCH   6  28
ATOM     28  C   LIG d   1       3.788   0.950 -10.928  0.00  0.00     0.020 C 
ATOM     29  H   LIG d   1       2.821   0.559 -11.240  0.00  0.00     0.046 H 
ATOM     30  H   LIG d   1       3.772   2.039 -10.980  0.00  0.00     0.046 H 
ATOM     31  H   LIG d   1       4.566   0.567 -11.588  0.00  0.00     0.046 H 
ENDBRANCH   6  28
TORSDOF 6
ENDMDL
MODEL 4
REMARK VINA RESULT:      -6.9      1.551      2.027
REMARK  6 active torsions:
REMARK  status: ('A' for Active; 'I' for Inactive)
REMARK    1  A    between atoms: C_1  and  N_2 
REMARK    2  A    between atoms: C_3  and  N_11 
REMARK    3  A    between atoms: N_7  and  C_10 
REMARK       I    between atoms: N_11  and  C_12 
REMARK    4  A    between atoms: C_12  and  C_14 
REMARK    5  A    between atoms: C_14  and  C_15 
REMARK    6  A    between atoms: C_14  and  C_19 
ROOT
ATOM      1  N   LIG d   1       5.122   0.020  -7.384  0.00  0.00    -0.284 N 
ATOM      2  C   LIG d   1       3.924  -0.343  -6.817  0.00  0.00     0.114 A 
ATOM      3  C   LIG d   1       2.786  -0.303  -7.567  0.00  0.00     0.042 A 
ATOM      4  C   LIG d   1       2.867   0.112  -8.909  0.00  0.00     0.258 A 
ATOM      5  O   LIG d   1       1.864   0.157  -9.599  0.00  0.00    -0.268 OA
ATOM      6  N   LIG d   1       4.062   0.459  -9.426  0.00  0.00    -0.264 N 
ATOM      7  C   LIG d   1       5.174   0.417  -8.669  0.00  0.00     0.333 A 
ATOM      8  O   LIG d   1       6.241   0.739  -9.153  0.00  0.00    -0.246 OA
ATOM      9  H   LIG d   1       1.836  -0.584  -7.138  0.00  0.00     0.071 H 
ENDROOT
BRANCH   2  10
ATOM     10  N   LIG d   1       3.874  -0.746  -5.499  0.00  0.00    -0.271 N 
ATOM     11  C   LIG d   1       3.390   0.088  -4.558  0.00  0.00     0.239 C 
ATOM     12  O   LIG d   1       2.914   1.156  -4.880  0.00  0.00    -0.275 OA
ATOM     13  H   LIG d   1       4.187  -1.630  -5.250  0.00  0.00     0.156 HD
BRANCH  11  14
ATOM     14  C   LIG d   1       3.441  -0.306  -3.104  0.00  0.00     0.224 C 
ATOM     15  H   LIG d   1       2.428  -0.461  -2.733  0.00  0.00     0.057 H 
BRANCH  14  16
ATOM     16  C   LIG d   1       4.242  -1.601  -2.955  0.00  0.00     0.409 C 
ATOM     17  F   LIG d   1       4.083  -2.100  -1.657  0.00  0.00    -0.170 F 
ATOM     18  F   LIG d   1       3.779  -2.545  -3.878  0.00  0.00    -0.170 F 
ATOM     19  F   LIG d   1       5.596  -1.342  -3.192  0.00  0.00    -0.170 F 
ENDBRANCH  14  16
BRANCH  14  20
ATOM     20  C   LIG d   1       4.115   0.806  -2.298  0.00  0.00     0.409 C 
ATOM     21  F   LIG d   1       4.621   0.278  -1.106  0.00  0.00    -0.170 F 
ATOM     22  F   LIG d   1       5.161   1.356  -3.046  0.00  0.00    -0.170 F 
ATOM     23  F   LIG d   1       3.177   1.803  -2.005  0.00  0.00    -0.170 F 
ENDBRANCH  14  20
ENDBRANCH  11  14
ENDBRANCH   2  10
BRANCH   1  24
ATOM     24  C   LIG d   1       6.349  -0.022  -6.585  0.00  0.00     0.018 C 
ATOM     25  H   LIG d   1       7.139   0.522  -7.103  0.00  0.00     0.046 H 
ATOM     26  H   LIG d   1       6.165   0.440  -5.615  0.00  0.00     0.046 H 
ATOM     27  H   LIG d   1       6.655  -1.059  -6.442  0.00  0.00     0.046 H 
ENDBRANCH   1  24
BRANCH   6  28
ATOM     28  C   LIG d   1       4.151   0.890 -10.824  0.00  0.00     0.020 C 
ATOM     29  H   LIG d   1       5.050   1.490 -10.963  0.00  0.00     0.046 H 
ATOM     30  H   LIG d   1       4.196   0.014 -11.471  0.00  0.00     0.046 H 
ATOM     31  H   LIG d   1       3.274   1.485 -11.078  0.00  0.00     0.046 H 
ENDBRANCH   6  28
TORSDOF 6
ENDMDL
MODEL 5
REMARK VINA RESULT:      -6.5      1.765      3.302
REMARK  6 active torsions:
REMARK  status: ('A' for Active; 'I' for Inactive)
REMARK    1  A    between atoms: C_1  and  N_2 
REMARK    2  A    between atoms: C_3  and  N_11 
REMARK    3  A    between atoms: N_7  and  C_10 
REMARK       I    between atoms: N_11  and  C_12 
REMARK    4  A    between atoms: C_12  and  C_14 
REMARK    5  A    between atoms: C_14  and  C_15 
REMARK    6  A    between atoms: C_14  and  C_19 
ROOT
ATOM      1  N   LIG d   1       3.682  -0.924  -7.798  0.00  0.00    -0.284 N 
ATOM      2  C   LIG d   1       4.288  -1.620  -6.780  0.00  0.00     0.114 A 
ATOM      3  C   LIG d   1       5.158  -2.626  -7.080  0.00  0.00     0.042 A 
ATOM      4  C   LIG d   1       5.415  -2.928  -8.429  0.00  0.00     0.258 A 
ATOM      5  O   LIG d   1       6.188  -3.823  -8.722  0.00  0.00    -0.268 OA
ATOM      6  N   LIG d   1       4.799  -2.220  -9.397  0.00  0.00    -0.264 N 
ATOM      7  C   LIG d   1       3.940  -1.234  -9.082  0.00  0.00     0.333 A 
ATOM      8  O   LIG d   1       3.392  -0.611  -9.970  0.00  0.00    -0.246 OA
ATOM      9  H   LIG d   1       5.644  -3.185  -6.293  0.00  0.00     0.071 H 
ENDROOT
BRANCH   2  10
ATOM     10  N   LIG d   1       4.018  -1.303  -5.466  0.00  0.00    -0.271 N 
ATOM     11  C   LIG d   1       4.815  -0.442  -4.803  0.00  0.00     0.239 C 
ATOM     12  O   LIG d   1       5.714   0.125  -5.387  0.00  0.00    -0.275 OA
ATOM     13  H   LIG d   1       3.254  -1.700  -5.018  0.00  0.00     0.156 HD
BRANCH  11  14
ATOM     14  C   LIG d   1       4.589  -0.184  -3.335  0.00  0.00     0.224 C 
ATOM     15  H   LIG d   1       5.331   0.528  -2.973  0.00  0.00     0.057 H 
BRANCH  14  16
ATOM     16  C   LIG d   1       3.187   0.391  -3.128  0.00  0.00     0.409 C 
ATOM     17  F   LIG d   1       2.788   1.074  -4.283  0.00  0.00    -0.170 F 
ATOM     18  F   LIG d   1       2.290  -0.650  -2.869  0.00  0.00    -0.170 F 
ATOM     19  F   LIG d   1       3.201   1.276  -2.044  0.00  0.00    -0.170 F 
ENDBRANCH  14  16
BRANCH  14  20
ATOM     20  C   LIG d   1       4.722  -1.496  -2.561  0.00  0.00     0.409 C 
ATOM     21  F   LIG d   1       3.764  -2.407  -3.018  0.00  0.00    -0.170 F 
ATOM     22  F   LIG d   1       6.001  -2.027  -2.760  0.00  0.00    -0.170 F 
ATOM     23  F   LIG d   1       4.524  -1.256  -1.197  0.00  0.00    -0.170 F 
ENDBRANCH  14  20
ENDBRANCH  11  14
ENDBRANCH   2  10
BRANCH   1  24
ATOM     24  C   LIG d   1       2.747   0.159  -7.484  0.00  0.00     0.018 C 
ATOM     25  H   LIG d   1       2.379   0.036  -6.465  0.00  0.00     0.046 H 
ATOM     26  H   LIG d   1       3.259   1.117  -7.572  0.00  0.00     0.046 H 
ATOM     27  H   LIG d   1       1.908   0.129  -8.179  0.00  0.00     0.046 H 
ENDBRANCH   1  24
BRANCH   6  28
ATOM     28  C   LIG d   1       5.065  -2.530 -10.804  0.00  0.00     0.020 C 
ATOM     29  H   LIG d   1       4.125  -2.562 -11.354  0.00  0.00     0.046 H 
ATOM     30  H   LIG d   1       5.708  -1.760 -11.230  0.00  0.00     0.046 H 
ATOM     31  H   LIG d   1       5.562  -3.497 -10.876  0.00  0.00     0.046 H 
ENDBRANCH   6  28
TORSDOF 6
ENDMDL
MODEL 6
REMARK VINA RESULT:      -6.5      1.584      2.660
REMARK  6 active torsions:
REMARK  status: ('A' for Active; 'I' for Inactive)
REMARK    1  A    between atoms: C_1  and  N_2 
REMARK    2  A    between atoms: C_3  and  N_11 
REMARK    3  A    between atoms: N_7  and  C_10 
REMARK       I    between atoms: N_11  and  C_12 
REMARK    4  A    between atoms: C_12  and  C_14 
REMARK    5  A    between atoms: C_14  and  C_15 
REMARK    6  A    between atoms: C_14  and  C_19 
ROOT
ATOM      1  N   LIG d   1       3.850  -0.820  -7.684  0.00  0.00    -0.284 N 
ATOM      2  C   LIG d   1       4.383  -1.491  -6.610  0.00  0.00     0.114 A 
ATOM      3  C   LIG d   1       5.399  -2.379  -6.810  0.00  0.00     0.042 A 
ATOM      4  C   LIG d   1       5.878  -2.586  -8.116  0.00  0.00     0.258 A 
ATOM      5  O   LIG d   1       6.784  -3.375  -8.319  0.00  0.00    -0.268 OA
ATOM      6  N   LIG d   1       5.327  -1.906  -9.141  0.00  0.00    -0.264 N 
ATOM      7  C   LIG d   1       4.322  -1.038  -8.925  0.00  0.00     0.333 A 
ATOM      8  O   LIG d   1       3.836  -0.439  -9.864  0.00  0.00    -0.246 OA
ATOM      9  H   LIG d   1       5.830  -2.916  -5.978  0.00  0.00     0.071 H 
ENDROOT
BRANCH   2  10
ATOM     10  N   LIG d   1       3.894  -1.269  -5.340  0.00  0.00    -0.271 N 
ATOM     11  C   LIG d   1       4.512  -0.391  -4.525  0.00  0.00     0.239 C 
ATOM     12  O   LIG d   1       5.441   0.270  -4.937  0.00  0.00    -0.275 OA
ATOM     13  H   LIG d   1       3.106  -1.744  -5.034  0.00  0.00     0.156 HD
BRANCH  11  14
ATOM     14  C   LIG d   1       4.048  -0.233  -3.100  0.00  0.00     0.224 C 
ATOM     15  H   LIG d   1       2.961  -0.161  -3.077  0.00  0.00     0.057 H 
BRANCH  14  16
ATOM     16  C   LIG d   1       4.496  -1.444  -2.279  0.00  0.00     0.409 C 
ATOM     17  F   LIG d   1       5.715  -1.919  -2.777  0.00  0.00    -0.170 F 
ATOM     18  F   LIG d   1       4.654  -1.068  -0.941  0.00  0.00    -0.170 F 
ATOM     19  F   LIG d   1       3.530  -2.452  -2.370  0.00  0.00    -0.170 F 
ENDBRANCH  14  16
BRANCH  14  20
ATOM     20  C   LIG d   1       4.656   1.039  -2.505  0.00  0.00     0.409 C 
ATOM     21  F   LIG d   1       4.293   1.144  -1.158  0.00  0.00    -0.170 F 
ATOM     22  F   LIG d   1       6.050   0.983  -2.609  0.00  0.00    -0.170 F 
ATOM     23  F   LIG d   1       4.180   2.154  -3.204  0.00  0.00    -0.170 F 
ENDBRANCH  14  20
ENDBRANCH  11  14
ENDBRANCH   2  10
BRANCH   1  24
ATOM     24  C   LIG d   1       2.760   0.135  -7.477  0.00  0.00     0.018 C 
ATOM     25  H   LIG d   1       2.278   0.349  -8.432  0.00  0.00     0.046 H 
ATOM     26  H   LIG d   1       2.030  -0.291  -6.789  0.00  0.00     0.046 H 
ATOM     27  H   LIG d   1       3.159   1.059  -7.057  0.00  0.00     0.046 H 
ENDBRANCH   1  24
BRANCH   6  28
ATOM     28  C   LIG d   1       5.824  -2.118 -10.503  0.00  0.00     0.020 C 
ATOM     29  H   LIG d   1       6.850  -2.483 -10.464  0.00  0.00     0.046 H 
ATOM     30  H   LIG d   1       5.197  -2.853 -11.008  0.00  0.00     0.046 H 
ATOM     31  H   LIG d   1       5.794  -1.177 -11.052  0.00  0.00     0.046 H 
ENDBRANCH   6  28
TORSDOF 6
ENDMDL
MODEL 7
REMARK VINA RESULT:      -6.3      4.574      5.569
REMARK  6 active torsions:
REMARK  status: ('A' for Active; 'I' for Inactive)
REMARK    1  A    between atoms: C_1  and  N_2 
REMARK    2  A    between atoms: C_3  and  N_11 
REMARK    3  A    between atoms: N_7  and  C_10 
REMARK       I    between atoms: N_11  and  C_12 
REMARK    4  A    between atoms: C_12  and  C_14 
REMARK    5  A    between atoms: C_14  and  C_15 
REMARK    6  A    between atoms: C_14  and  C_19 
ROOT
ATOM      1  N   LIG d   1       8.551   0.803  -5.595  0.00  0.00    -0.284 N 
ATOM      2  C   LIG d   1       7.936   1.338  -4.489  0.00  0.00     0.114 A 
ATOM      3  C   LIG d   1       8.683   2.006  -3.564  0.00  0.00     0.042 A 
ATOM      4  C   LIG d   1      10.069   2.131  -3.765  0.00  0.00     0.258 A 
ATOM      5  O   LIG d   1      10.757   2.723  -2.952  0.00  0.00    -0.268 OA
ATOM      6  N   LIG d   1      10.631   1.591  -4.865  0.00  0.00    -0.264 N 
ATOM      7  C   LIG d   1       9.879   0.931  -5.764  0.00  0.00     0.333 A 
ATOM      8  O   LIG d   1      10.408   0.447  -6.746  0.00  0.00    -0.246 OA
ATOM      9  H   LIG d   1       8.217   2.433  -2.688  0.00  0.00     0.071 H 
ENDROOT
BRANCH   2  10
ATOM     10  N   LIG d   1       6.575   1.201  -4.317  0.00  0.00    -0.271 N 
ATOM     11  C   LIG d   1       6.090   0.204  -3.551  0.00  0.00     0.239 C 
ATOM     12  O   LIG d   1       6.850  -0.516  -2.939  0.00  0.00    -0.275 OA
ATOM     13  H   LIG d   1       5.966   1.823  -4.747  0.00  0.00     0.156 HD
BRANCH  11  14
ATOM     14  C   LIG d   1       4.602  -0.016  -3.455  0.00  0.00     0.224 C 
ATOM     15  H   LIG d   1       4.152   0.110  -4.439  0.00  0.00     0.057 H 
BRANCH  14  16
ATOM     16  C   LIG d   1       4.328  -1.433  -2.947  0.00  0.00     0.409 C 
ATOM     17  F   LIG d   1       4.584  -1.493  -1.572  0.00  0.00    -0.170 F 
ATOM     18  F   LIG d   1       2.989  -1.763  -3.186  0.00  0.00    -0.170 F 
ATOM     19  F   LIG d   1       5.158  -2.338  -3.617  0.00  0.00    -0.170 F 
ENDBRANCH  14  16
BRANCH  14  20
ATOM     20  C   LIG d   1       3.998   1.000  -2.484  0.00  0.00     0.409 C 
ATOM     21  F   LIG d   1       4.817   1.111  -1.355  0.00  0.00    -0.170 F 
ATOM     22  F   LIG d   1       3.902   2.246  -3.113  0.00  0.00    -0.170 F 
ATOM     23  F   LIG d   1       2.724   0.574  -2.094  0.00  0.00    -0.170 F 
ENDBRANCH  14  20
ENDBRANCH  11  14
ENDBRANCH   2  10
BRANCH   1  24
ATOM     24  C   LIG d   1       7.755   0.084  -6.594  0.00  0.00     0.018 C 
ATOM     25  H   LIG d   1       6.777  -0.155  -6.175  0.00  0.00     0.046 H 
ATOM     26  H   LIG d   1       7.629   0.712  -7.476  0.00  0.00     0.046 H 
ATOM     27  H   LIG d   1       8.267  -0.838  -6.872  0.00  0.00     0.046 H 
ENDBRANCH   1  24
BRANCH   6  28
ATOM     28  C   LIG d   1      12.075   1.720  -5.079  0.00  0.00     0.020 C 
ATOM     29  H   LIG d   1      12.394   2.728  -4.817  0.00  0.00     0.046 H 
ATOM     30  H   LIG d   1      12.601   0.999  -4.452  0.00  0.00     0.046 H 
ATOM     31  H   LIG d   1      12.307   1.526  -6.126  0.00  0.00     0.046 H 
ENDBRANCH   6  28
TORSDOF 6
ENDMDL
MODEL 8
REMARK VINA RESULT:      -6.2      3.372      4.796
REMARK  6 active torsions:
REMARK  status: ('A' for Active; 'I' for Inactive)
REMARK    1  A    between atoms: C_1  and  N_2 
REMARK    2  A    between atoms: C_3  and  N_11 
REMARK    3  A    between atoms: N_7  and  C_10 
REMARK       I    between atoms: N_11  and  C_12 
REMARK    4  A    between atoms: C_12  and  C_14 
REMARK    5  A    between atoms: C_14  and  C_15 
REMARK    6  A    between atoms: C_14  and  C_19 
ROOT
ATOM      1  N   LIG d   1       6.408  -3.314  -4.634  0.00  0.00    -0.284 N 
ATOM      2  C   LIG d   1       5.073  -3.043  -4.819  0.00  0.00     0.114 A 
ATOM      3  C   LIG d   1       4.260  -4.003  -5.346  0.00  0.00     0.042 A 
ATOM      4  C   LIG d   1       4.811  -5.251  -5.688  0.00  0.00     0.258 A 
ATOM      5  O   LIG d   1       4.104  -6.125  -6.161  0.00  0.00    -0.268 OA
ATOM      6  N   LIG d   1       6.125  -5.475  -5.490  0.00  0.00    -0.264 N 
ATOM      7  C   LIG d   1       6.912  -4.514  -4.974  0.00  0.00     0.333 A 
ATOM      8  O   LIG d   1       8.095  -4.735  -4.807  0.00  0.00    -0.246 OA
ATOM      9  H   LIG d   1       3.209  -3.809  -5.499  0.00  0.00     0.071 H 
ENDROOT
BRANCH   2  10
ATOM     10  N   LIG d   1       4.560  -1.811  -4.475  0.00  0.00    -0.271 N 
ATOM     11  C   LIG d   1       3.787  -1.685  -3.378  0.00  0.00     0.239 C 
ATOM     12  O   LIG d   1       3.618  -2.635  -2.644  0.00  0.00    -0.275 OA
ATOM     13  H   LIG d   1       4.756  -1.033  -5.022  0.00  0.00     0.156 HD
BRANCH  11  14
ATOM     14  C   LIG d   1       3.133  -0.364  -3.065  0.00  0.00     0.224 C 
ATOM     15  H   LIG d   1       2.244  -0.534  -2.457  0.00  0.00     0.057 H 
BRANCH  14  16
ATOM     16  C   LIG d   1       4.114   0.522  -2.297  0.00  0.00     0.409 C 
ATOM     17  F   LIG d   1       5.151   0.918  -3.150  0.00  0.00    -0.170 F 
ATOM     18  F   LIG d   1       3.445   1.655  -1.820  0.00  0.00    -0.170 F 
ATOM     19  F   LIG d   1       4.645  -0.195  -1.219  0.00  0.00    -0.170 F 
ENDBRANCH  14  16
BRANCH  14  20
ATOM     20  C   LIG d   1       2.733   0.328  -4.370  0.00  0.00     0.409 C 
ATOM     21  F   LIG d   1       3.670   0.028  -5.363  0.00  0.00    -0.170 F 
ATOM     22  F   LIG d   1       1.470  -0.123  -4.769  0.00  0.00    -0.170 F 
ATOM     23  F   LIG d   1       2.693   1.712  -4.170  0.00  0.00    -0.170 F 
ENDBRANCH  14  20
ENDBRANCH  11  14
ENDBRANCH   2  10
BRANCH   1  24
ATOM     24  C   LIG d   1       7.286  -2.287  -4.068  0.00  0.00     0.018 C 
ATOM     25  H   LIG d   1       8.209  -2.752  -3.719  0.00  0.00     0.046 H 
ATOM     26  H   LIG d   1       7.520  -1.547  -4.834  0.00  0.00     0.046 H 
ATOM     27  H   LIG d   1       6.785  -1.800  -3.231  0.00  0.00     0.046 H 
ENDBRANCH   1  24
BRANCH   6  28
ATOM     28  C   LIG d   1       6.702  -6.775  -5.844  0.00  0.00     0.020 C 
ATOM     29  H   LIG d   1       5.952  -7.554  -5.713  0.00  0.00     0.046 H 
ATOM     30  H   LIG d   1       7.028  -6.756  -6.884  0.00  0.00     0.046 H 
ATOM     31  H   LIG d   1       7.556  -6.981  -5.199  0.00  0.00     0.046 H 
ENDBRANCH   6  28
TORSDOF 6
ENDMDL
MODEL 9
REMARK VINA RESULT:      -6.1      3.128      4.498
REMARK  6 active torsions:
REMARK  status: ('A' for Active; 'I' for Inactive)
REMARK    1  A    between atoms: C_1  and  N_2 
REMARK    2  A    between atoms: C_3  and  N_11 
REMARK    3  A    between atoms: N_7  and  C_10 
REMARK       I    between atoms: N_11  and  C_12 
REMARK    4  A    between atoms: C_12  and  C_14 
REMARK    5  A    between atoms: C_14  and  C_15 
REMARK    6  A    between atoms: C_14  and  C_19 
ROOT
ATOM      1  N   LIG d   1       6.270  -4.249  -5.368  0.00  0.00    -0.284 N 
ATOM      2  C   LIG d   1       5.255  -3.396  -5.730  0.00  0.00     0.114 A 
ATOM      3  C   LIG d   1       4.213  -3.869  -6.472  0.00  0.00     0.042 A 
ATOM      4  C   LIG d   1       4.203  -5.223  -6.849  0.00  0.00     0.258 A 
ATOM      5  O   LIG d   1       3.282  -5.668  -7.512  0.00  0.00    -0.268 OA
ATOM      6  N   LIG d   1       5.217  -6.026  -6.472  0.00  0.00    -0.264 N 
ATOM      7  C   LIG d   1       6.240  -5.540  -5.744  0.00  0.00     0.333 A 
ATOM      8  O   LIG d   1       7.147  -6.280  -5.419  0.00  0.00    -0.246 OA
ATOM      9  H   LIG d   1       3.407  -3.213  -6.766  0.00  0.00     0.071 H 
ENDROOT
BRANCH   2  10
ATOM     10  N   LIG d   1       5.291  -2.072  -5.346  0.00  0.00    -0.271 N 
ATOM     11  C   LIG d   1       4.554  -1.654  -4.298  0.00  0.00     0.239 C 
ATOM     12  O   LIG d   1       3.932  -2.457  -3.636  0.00  0.00    -0.275 OA
ATOM     13  H   LIG d   1       5.847  -1.441  -5.831  0.00  0.00     0.156 HD
BRANCH  11  14
ATOM     14  C   LIG d   1       4.503  -0.189  -3.950  0.00  0.00     0.224 C 
ATOM     15  H   LIG d   1       4.941   0.393  -4.761  0.00  0.00     0.057 H 
BRANCH  14  16
ATOM     16  C   LIG d   1       3.048   0.237  -3.744  0.00  0.00     0.409 C 
ATOM     17  F   LIG d   1       2.477  -0.532  -2.724  0.00  0.00    -0.170 F 
ATOM     18  F   LIG d   1       3.003   1.589  -3.391  0.00  0.00    -0.170 F 
ATOM     19  F   LIG d   1       2.333   0.041  -4.931  0.00  0.00    -0.170 F 
ENDBRANCH  14  16
BRANCH  14  20
ATOM     20  C   LIG d   1       5.293   0.056  -2.663  0.00  0.00     0.409 C 
ATOM     21  F   LIG d   1       5.658   1.404  -2.589  0.00  0.00    -0.170 F 
ATOM     22  F   LIG d   1       4.499  -0.273  -1.559  0.00  0.00    -0.170 F 
ATOM     23  F   LIG d   1       6.444  -0.738  -2.663  0.00  0.00    -0.170 F 
ENDBRANCH  14  20
ENDBRANCH  11  14
ENDBRANCH   2  10
BRANCH   1  24
ATOM     24  C   LIG d   1       7.392  -3.748  -4.570  0.00  0.00     0.018 C 
ATOM     25  H   LIG d   1       7.124  -3.771  -3.513  0.00  0.00     0.046 H 
ATOM     26  H   LIG d   1       8.265  -4.378  -4.738  0.00  0.00     0.046 H 
ATOM     27  H   LIG d   1       7.620  -2.724  -4.865  0.00  0.00     0.046 H 
ENDBRANCH   1  24
BRANCH   6  28
ATOM     28  C   LIG d   1       5.210  -7.439  -6.862  0.00  0.00     0.020 C 
ATOM     29  H   LIG d   1       5.750  -8.024  -6.119  0.00  0.00     0.046 H 
ATOM     30  H   LIG d   1       4.180  -7.792  -6.923  0.00  0.00     0.046 H 
ATOM     31  H   LIG d   1       5.690  -7.551  -7.834  0.00  0.00     0.046 H 
ENDBRANCH   6  28
TORSDOF 6
ENDMDL
