MODEL 1
REMARK VINA RESULT:      -8.4      0.000      0.000
REMARK  5 active torsions:
REMARK  status: ('A' for Active; 'I' for Inactive)
REMARK    1  A    between atoms: C_4  and  S_7 
REMARK    2  A    between atoms: S_7  and  N_10 
REMARK    3  A    between atoms: N_10  and  C_11 
REMARK    4  A    between atoms: N_25  and  S_27 
REMARK    5  A    between atoms: S_27  and  C_30 
ROOT
ATOM      1  C   LIG d   1       3.415  -0.054  -5.504  0.00  0.00     0.068 A 
ATOM      2  C   LIG d   1       2.677   1.001  -4.946  0.00  0.00    -0.033 A 
ATOM      3  C   LIG d   1       2.881   1.325  -3.636  0.00  0.00     0.005 A 
ATOM      4  C   LIG d   1       3.797   0.583  -2.882  0.00  0.00     0.252 A 
ATOM      5  O   LIG d   1       4.016   0.895  -1.721  0.00  0.00    -0.268 OA
ATOM      6  N   LIG d   1       4.444  -0.480  -3.422  0.00  0.00    -0.310 N 
ATOM      7  C   LIG d   1       4.306  -0.754  -4.742  0.00  0.00     0.049 A 
ATOM      8  C   LIG d   1       5.138  -1.805  -5.438  0.00  0.00     0.016 C 
ATOM      9  H   LIG d   1       4.567  -2.263  -6.245  0.00  0.00     0.038 H 
ATOM     10  C   LIG d   1       5.591  -2.860  -4.424  0.00  0.00    -0.038 C 
ATOM     11  C   LIG d   1       6.271  -2.146  -3.257  0.00  0.00    -0.008 C 
ATOM     12  H   LIG d   1       6.631  -2.913  -2.570  0.00  0.00     0.033 H 
ATOM     13  C   LIG d   1       5.261  -1.288  -2.516  0.00  0.00     0.030 C 
ATOM     14  C   LIG d   1       7.470  -1.337  -3.730  0.00  0.00     0.025 C 
ATOM     15  N   LIG d   1       7.097  -0.492  -4.870  0.00  0.00    -0.176 N 
ATOM     16  C   LIG d   1       6.390  -1.111  -6.004  0.00  0.00     0.029 C 
ATOM     17  H   LIG d   1       1.960   1.544  -5.541  0.00  0.00     0.064 H 
ATOM     18  H   LIG d   1       2.342   2.147  -3.188  0.00  0.00     0.067 H 
ATOM     19  H   LIG d   1       6.296  -3.544  -4.898  0.00  0.00     0.028 H 
ATOM     20  H   LIG d   1       4.726  -3.415  -4.062  0.00  0.00     0.028 H 
ATOM     21  H   LIG d   1       4.606  -1.938  -1.935  0.00  0.00     0.050 H 
ATOM     22  H   LIG d   1       5.793  -0.625  -1.835  0.00  0.00     0.050 H 
ATOM     23  H   LIG d   1       7.826  -0.707  -2.915  0.00  0.00     0.045 H 
ATOM     24  H   LIG d   1       8.268  -2.017  -4.033  0.00  0.00     0.045 H 
ATOM     25  H   LIG d   1       7.035  -1.845  -6.486  0.00  0.00     0.045 H 
ATOM     26  H   LIG d   1       6.098  -0.345  -6.721  0.00  0.00     0.045 H 
ENDROOT
BRANCH   1  27
ATOM     27  N   LIG d   1       3.238  -0.391  -6.854  0.00  0.00    -0.215 N 
ATOM     28  H   LIG d   1       2.926  -1.276  -7.097  0.00  0.00     0.174 HD
BRANCH  27  29
ATOM     29  S   LIG d   1       3.561   0.725  -8.035  0.00  0.00     0.072 S 
ATOM     30  O   LIG d   1       2.739   1.852  -7.765  0.00  0.00    -0.150 OA
ATOM     31  O   LIG d   1       4.976   0.819  -8.130  0.00  0.00    -0.150 OA
BRANCH  29  32
ATOM     32  C   LIG d   1       2.999   0.045  -9.561  0.00  0.00     0.108 A 
ATOM     33  C   LIG d   1       3.798   0.120 -10.686  0.00  0.00    -0.035 A 
ATOM     34  C   LIG d   1       3.357  -0.414 -11.883  0.00  0.00    -0.060 A 
ATOM     35  H   LIG d   1       4.766   0.596 -10.631  0.00  0.00     0.064 H 
ATOM     36  C   LIG d   1       2.119  -1.023 -11.954  0.00  0.00    -0.062 A 
ATOM     37  H   LIG d   1       3.981  -0.355 -12.763  0.00  0.00     0.062 H 
ATOM     38  C   LIG d   1       1.320  -1.099 -10.828  0.00  0.00    -0.060 A 
ATOM     39  H   LIG d   1       1.774  -1.439 -12.889  0.00  0.00     0.062 H 
ATOM     40  C   LIG d   1       1.763  -0.570  -9.630  0.00  0.00    -0.035 A 
ATOM     41  H   LIG d   1       0.352  -1.575 -10.884  0.00  0.00     0.062 H 
ATOM     42  H   LIG d   1       1.141  -0.633  -8.749  0.00  0.00     0.064 H 
ENDBRANCH  29  32
ENDBRANCH  27  29
ENDBRANCH   1  27
BRANCH  15  43
ATOM     43  S   LIG d   1       7.460   1.124  -4.881  0.00  0.00     0.061 S 
ATOM     44  O   LIG d   1       7.318   1.564  -6.225  0.00  0.00    -0.153 OA
ATOM     45  O   LIG d   1       6.737   1.710  -3.806  0.00  0.00    -0.153 OA
BRANCH  43  46
ATOM     46  C   LIG d   1       9.170   1.276  -4.480  0.00  0.00     0.105 A 
ATOM     47  C   LIG d   1      10.100   0.463  -5.101  0.00  0.00    -0.035 A 
ATOM     48  C   LIG d   1      11.440   0.583  -4.786  0.00  0.00    -0.060 A 
ATOM     49  H   LIG d   1       9.779  -0.265  -5.830  0.00  0.00     0.064 H 
ATOM     50  C   LIG d   1      11.851   1.515  -3.852  0.00  0.00    -0.062 A 
ATOM     51  H   LIG d   1      12.167  -0.053  -5.270  0.00  0.00     0.062 H 
ATOM     52  C   LIG d   1      10.921   2.328  -3.231  0.00  0.00    -0.060 A 
ATOM     53  H   LIG d   1      12.899   1.609  -3.606  0.00  0.00     0.062 H 
ATOM     54  C   LIG d   1       9.580   2.212  -3.550  0.00  0.00    -0.035 A 
ATOM     55  H   LIG d   1      11.241   3.056  -2.501  0.00  0.00     0.062 H 
ATOM     56  H   LIG d   1       8.854   2.849  -3.068  0.00  0.00     0.064 H 
ENDBRANCH  43  46
ENDBRANCH  15  43
TORSDOF 5
ENDMDL
MODEL 2
REMARK VINA RESULT:      -8.1      3.008      7.147
REMARK  5 active torsions:
REMARK  status: ('A' for Active; 'I' for Inactive)
REMARK    1  A    between atoms: C_4  and  S_7 
REMARK    2  A    between atoms: S_7  and  N_10 
REMARK    3  A    between atoms: N_10  and  C_11 
REMARK    4  A    between atoms: N_25  and  S_27 
REMARK    5  A    between atoms: S_27  and  C_30 
ROOT
ATOM      1  C   LIG d   1       7.023  -0.581  -7.362  0.00  0.00     0.068 A 
ATOM      2  C   LIG d   1       8.066  -0.120  -8.180  0.00  0.00    -0.033 A 
ATOM      3  C   LIG d   1       8.568  -0.952  -9.137  0.00  0.00     0.005 A 
ATOM      4  C   LIG d   1       8.049  -2.246  -9.260  0.00  0.00     0.252 A 
ATOM      5  O   LIG d   1       8.464  -2.981 -10.143  0.00  0.00    -0.268 OA
ATOM      6  N   LIG d   1       7.092  -2.696  -8.410  0.00  0.00    -0.310 N 
ATOM      7  C   LIG d   1       6.535  -1.847  -7.512  0.00  0.00     0.049 A 
ATOM      8  C   LIG d   1       5.343  -2.235  -6.669  0.00  0.00     0.016 C 
ATOM      9  H   LIG d   1       5.386  -1.732  -5.704  0.00  0.00     0.038 H 
ATOM     10  C   LIG d   1       5.311  -3.755  -6.489  0.00  0.00    -0.038 C 
ATOM     11  C   LIG d   1       5.381  -4.405  -7.871  0.00  0.00    -0.008 C 
ATOM     12  H   LIG d   1       5.307  -5.484  -7.728  0.00  0.00     0.033 H 
ATOM     13  C   LIG d   1       6.723  -4.108  -8.514  0.00  0.00     0.030 C 
ATOM     14  C   LIG d   1       4.217  -3.964  -8.746  0.00  0.00     0.025 C 
ATOM     15  N   LIG d   1       4.093  -2.502  -8.730  0.00  0.00    -0.176 N 
ATOM     16  C   LIG d   1       4.074  -1.812  -7.430  0.00  0.00     0.029 C 
ATOM     17  H   LIG d   1       8.466   0.874  -8.052  0.00  0.00     0.064 H 
ATOM     18  H   LIG d   1       9.357  -0.615  -9.794  0.00  0.00     0.067 H 
ATOM     19  H   LIG d   1       4.384  -4.046  -5.993  0.00  0.00     0.028 H 
ATOM     20  H   LIG d   1       6.164  -4.072  -5.890  0.00  0.00     0.028 H 
ATOM     21  H   LIG d   1       7.490  -4.709  -8.025  0.00  0.00     0.050 H 
ATOM     22  H   LIG d   1       6.679  -4.384  -9.567  0.00  0.00     0.050 H 
ATOM     23  H   LIG d   1       4.386  -4.301  -9.769  0.00  0.00     0.045 H 
ATOM     24  H   LIG d   1       3.295  -4.407  -8.371  0.00  0.00     0.045 H 
ATOM     25  H   LIG d   1       3.189  -2.106  -6.867  0.00  0.00     0.045 H 
ATOM     26  H   LIG d   1       4.075  -0.733  -7.583  0.00  0.00     0.045 H 
ENDROOT
BRANCH   1  27
ATOM     27  N   LIG d   1       6.477   0.265  -6.386  0.00  0.00    -0.215 N 
ATOM     28  H   LIG d   1       5.635   0.718  -6.552  0.00  0.00     0.174 HD
BRANCH  27  29
ATOM     29  S   LIG d   1       7.269   0.492  -4.949  0.00  0.00     0.072 S 
ATOM     30  O   LIG d   1       8.289  -0.496  -4.887  0.00  0.00    -0.150 OA
ATOM     31  O   LIG d   1       7.547   1.882  -4.853  0.00  0.00    -0.150 OA
BRANCH  29  32
ATOM     32  C   LIG d   1       6.126   0.118  -3.660  0.00  0.00     0.108 A 
ATOM     33  C   LIG d   1       5.550   1.140  -2.930  0.00  0.00    -0.035 A 
ATOM     34  C   LIG d   1       4.653   0.847  -1.920  0.00  0.00    -0.060 A 
ATOM     35  H   LIG d   1       5.800   2.168  -3.149  0.00  0.00     0.064 H 
ATOM     36  C   LIG d   1       4.333  -0.468  -1.640  0.00  0.00    -0.062 A 
ATOM     37  H   LIG d   1       4.203   1.646  -1.348  0.00  0.00     0.062 H 
ATOM     38  C   LIG d   1       4.909  -1.490  -2.371  0.00  0.00    -0.060 A 
ATOM     39  H   LIG d   1       3.633  -0.697  -0.850  0.00  0.00     0.062 H 
ATOM     40  C   LIG d   1       5.801  -1.198  -3.385  0.00  0.00    -0.035 A 
ATOM     41  H   LIG d   1       4.659  -2.518  -2.151  0.00  0.00     0.062 H 
ATOM     42  H   LIG d   1       6.248  -1.995  -3.959  0.00  0.00     0.064 H 
ENDBRANCH  29  32
ENDBRANCH  27  29
ENDBRANCH   1  27
BRANCH  15  43
ATOM     43  S   LIG d   1       3.979  -1.647 -10.144  0.00  0.00     0.061 S 
ATOM     44  O   LIG d   1       5.210  -1.831 -10.831  0.00  0.00    -0.153 OA
ATOM     45  O   LIG d   1       2.725  -1.982 -10.722  0.00  0.00    -0.153 OA
BRANCH  43  46
ATOM     46  C   LIG d   1       3.895   0.061  -9.714  0.00  0.00     0.105 A 
ATOM     47  C   LIG d   1       2.694   0.612  -9.307  0.00  0.00    -0.035 A 
ATOM     48  C   LIG d   1       2.628   1.951  -8.970  0.00  0.00    -0.060 A 
ATOM     49  H   LIG d   1       1.808  -0.003  -9.253  0.00  0.00     0.064 H 
ATOM     50  C   LIG d   1       3.762   2.738  -9.039  0.00  0.00    -0.062 A 
ATOM     51  H   LIG d   1       1.690   2.382  -8.653  0.00  0.00     0.062 H 
ATOM     52  C   LIG d   1       4.963   2.187  -9.446  0.00  0.00    -0.060 A 
ATOM     53  H   LIG d   1       3.711   3.785  -8.776  0.00  0.00     0.062 H 
ATOM     54  C   LIG d   1       5.029   0.846  -9.778  0.00  0.00    -0.035 A 
ATOM     55  H   LIG d   1       5.849   2.801  -9.501  0.00  0.00     0.062 H 
ATOM     56  H   LIG d   1       5.968   0.415 -10.093  0.00  0.00     0.064 H 
ENDBRANCH  43  46
ENDBRANCH  15  43
TORSDOF 5
ENDMDL
MODEL 3
REMARK VINA RESULT:      -8.1      3.270      5.324
REMARK  5 active torsions:
REMARK  status: ('A' for Active; 'I' for Inactive)
REMARK    1  A    between atoms: C_4  and  S_7 
REMARK    2  A    between atoms: S_7  and  N_10 
REMARK    3  A    between atoms: N_10  and  C_11 
REMARK    4  A    between atoms: N_25  and  S_27 
REMARK    5  A    between atoms: S_27  and  C_30 
ROOT
ATOM      1  C   LIG d   1       4.946  -2.862  -6.442  0.00  0.00     0.068 A 
ATOM      2  C   LIG d   1       4.432  -2.407  -7.666  0.00  0.00    -0.033 A 
ATOM      3  C   LIG d   1       3.855  -1.173  -7.719  0.00  0.00     0.005 A 
ATOM      4  C   LIG d   1       3.768  -0.407  -6.550  0.00  0.00     0.252 A 
ATOM      5  O   LIG d   1       3.292   0.717  -6.599  0.00  0.00    -0.268 OA
ATOM      6  N   LIG d   1       4.205  -0.897  -5.363  0.00  0.00    -0.310 N 
ATOM      7  C   LIG d   1       4.851  -2.087  -5.321  0.00  0.00     0.049 A 
ATOM      8  C   LIG d   1       5.519  -2.598  -4.067  0.00  0.00     0.016 C 
ATOM      9  H   LIG d   1       5.477  -3.686  -4.035  0.00  0.00     0.038 H 
ATOM     10  C   LIG d   1       4.840  -1.990  -2.836  0.00  0.00    -0.038 C 
ATOM     11  C   LIG d   1       4.816  -0.471  -2.999  0.00  0.00    -0.008 C 
ATOM     12  H   LIG d   1       4.375  -0.052  -2.095  0.00  0.00     0.033 H 
ATOM     13  C   LIG d   1       3.931  -0.091  -4.173  0.00  0.00     0.030 C 
ATOM     14  C   LIG d   1       6.225   0.089  -3.141  0.00  0.00     0.025 C 
ATOM     15  N   LIG d   1       6.968  -0.656  -4.164  0.00  0.00    -0.176 N 
ATOM     16  C   LIG d   1       6.984  -2.126  -4.092  0.00  0.00     0.029 C 
ATOM     17  H   LIG d   1       4.490  -3.025  -8.549  0.00  0.00     0.064 H 
ATOM     18  H   LIG d   1       3.471  -0.789  -8.653  0.00  0.00     0.067 H 
ATOM     19  H   LIG d   1       5.401  -2.255  -1.940  0.00  0.00     0.028 H 
ATOM     20  H   LIG d   1       3.820  -2.367  -2.756  0.00  0.00     0.028 H 
ATOM     21  H   LIG d   1       2.888  -0.229  -3.886  0.00  0.00     0.050 H 
ATOM     22  H   LIG d   1       4.094   0.959  -4.413  0.00  0.00     0.050 H 
ATOM     23  H   LIG d   1       6.169   1.139  -3.428  0.00  0.00     0.045 H 
ATOM     24  H   LIG d   1       6.744   0.005  -2.186  0.00  0.00     0.045 H 
ATOM     25  H   LIG d   1       7.492  -2.447  -3.183  0.00  0.00     0.045 H 
ATOM     26  H   LIG d   1       7.491  -2.535  -4.966  0.00  0.00     0.045 H 
ENDROOT
BRANCH   1  27
ATOM     27  N   LIG d   1       5.563  -4.120  -6.369  0.00  0.00    -0.215 N 
ATOM     28  H   LIG d   1       6.516  -4.184  -6.202  0.00  0.00     0.174 HD
BRANCH  27  29
ATOM     29  S   LIG d   1       4.663  -5.496  -6.566  0.00  0.00     0.072 S 
ATOM     30  O   LIG d   1       3.453  -5.298  -5.848  0.00  0.00    -0.150 OA
ATOM     31  O   LIG d   1       4.684  -5.800  -7.954  0.00  0.00    -0.150 OA
BRANCH  29  32
ATOM     32  C   LIG d   1       5.524  -6.801  -5.752  0.00  0.00     0.108 A 
ATOM     33  C   LIG d   1       6.882  -6.694  -5.521  0.00  0.00    -0.035 A 
ATOM     34  C   LIG d   1       7.557  -7.718  -4.882  0.00  0.00    -0.060 A 
ATOM     35  H   LIG d   1       7.416  -5.811  -5.838  0.00  0.00     0.064 H 
ATOM     36  C   LIG d   1       6.874  -8.849  -4.475  0.00  0.00    -0.062 A 
ATOM     37  H   LIG d   1       8.619  -7.635  -4.701  0.00  0.00     0.062 H 
ATOM     38  C   LIG d   1       5.515  -8.955  -4.707  0.00  0.00    -0.060 A 
ATOM     39  H   LIG d   1       7.401  -9.648  -3.977  0.00  0.00     0.062 H 
ATOM     40  C   LIG d   1       4.838  -7.930  -5.340  0.00  0.00    -0.035 A 
ATOM     41  H   LIG d   1       4.981  -9.839  -4.389  0.00  0.00     0.062 H 
ATOM     42  H   LIG d   1       3.777  -8.011  -5.517  0.00  0.00     0.064 H 
ENDBRANCH  29  32
ENDBRANCH  27  29
ENDBRANCH   1  27
BRANCH  15  43
ATOM     43  S   LIG d   1       7.771   0.140  -5.374  0.00  0.00     0.061 S 
ATOM     44  O   LIG d   1       8.312  -0.858  -6.228  0.00  0.00    -0.153 OA
ATOM     45  O   LIG d   1       6.893   1.153  -5.846  0.00  0.00    -0.153 OA
BRANCH  43  46
ATOM     46  C   LIG d   1       9.142   0.966  -4.634  0.00  0.00     0.105 A 
ATOM     47  C   LIG d   1       8.927   2.037  -3.787  0.00  0.00    -0.035 A 
ATOM     48  C   LIG d   1      10.002   2.685  -3.207  0.00  0.00    -0.060 A 
ATOM     49  H   LIG d   1       7.920   2.368  -3.578  0.00  0.00     0.064 H 
ATOM     50  C   LIG d   1      11.290   2.261  -3.474  0.00  0.00    -0.062 A 
ATOM     51  H   LIG d   1       9.834   3.522  -2.545  0.00  0.00     0.062 H 
ATOM     52  C   LIG d   1      11.505   1.190  -4.322  0.00  0.00    -0.060 A 
ATOM     53  H   LIG d   1      12.130   2.767  -3.021  0.00  0.00     0.062 H 
ATOM     54  C   LIG d   1      10.429   0.540  -4.898  0.00  0.00    -0.035 A 
ATOM     55  H   LIG d   1      12.511   0.860  -4.531  0.00  0.00     0.062 H 
ATOM     56  H   LIG d   1      10.596  -0.299  -5.557  0.00  0.00     0.064 H 
ENDBRANCH  43  46
ENDBRANCH  15  43
TORSDOF 5
ENDMDL
MODEL 4
REMARK VINA RESULT:      -8.1      3.410      5.562
REMARK  5 active torsions:
REMARK  status: ('A' for Active; 'I' for Inactive)
REMARK    1  A    between atoms: C_4  and  S_7 
REMARK    2  A    between atoms: S_7  and  N_10 
REMARK    3  A    between atoms: N_10  and  C_11 
REMARK    4  A    between atoms: N_25  and  S_27 
REMARK    5  A    between atoms: S_27  and  C_30 
ROOT
ATOM      1  C   LIG d   1       4.902  -2.761  -6.206  0.00  0.00     0.068 A 
ATOM      2  C   LIG d   1       4.542  -2.291  -7.479  0.00  0.00    -0.033 A 
ATOM      3  C   LIG d   1       3.947  -1.068  -7.584  0.00  0.00     0.005 A 
ATOM      4  C   LIG d   1       3.689  -0.329  -6.423  0.00  0.00     0.252 A 
ATOM      5  O   LIG d   1       3.197   0.785  -6.513  0.00  0.00    -0.268 OA
ATOM      6  N   LIG d   1       3.978  -0.836  -5.198  0.00  0.00    -0.310 N 
ATOM      7  C   LIG d   1       4.641  -2.013  -5.094  0.00  0.00     0.049 A 
ATOM      8  C   LIG d   1       5.152  -2.536  -3.772  0.00  0.00     0.016 C 
ATOM      9  H   LIG d   1       5.131  -3.626  -3.766  0.00  0.00     0.038 H 
ATOM     10  C   LIG d   1       4.302  -1.970  -2.630  0.00  0.00    -0.038 C 
ATOM     11  C   LIG d   1       4.264  -0.448  -2.767  0.00  0.00    -0.008 C 
ATOM     12  H   LIG d   1       3.698  -0.059  -1.920  0.00  0.00     0.033 H 
ATOM     13  C   LIG d   1       3.531  -0.062  -4.039  0.00  0.00     0.030 C 
ATOM     14  C   LIG d   1       5.665   0.144  -2.712  0.00  0.00     0.025 C 
ATOM     15  N   LIG d   1       6.554  -0.562  -3.641  0.00  0.00    -0.176 N 
ATOM     16  C   LIG d   1       6.595  -2.033  -3.595  0.00  0.00     0.029 C 
ATOM     17  H   LIG d   1       4.730  -2.887  -8.358  0.00  0.00     0.064 H 
ATOM     18  H   LIG d   1       3.680  -0.673  -8.553  0.00  0.00     0.067 H 
ATOM     19  H   LIG d   1       4.748  -2.242  -1.673  0.00  0.00     0.028 H 
ATOM     20  H   LIG d   1       3.290  -2.370  -2.693  0.00  0.00     0.028 H 
ATOM     21  H   LIG d   1       2.463  -0.228  -3.895  0.00  0.00     0.050 H 
ATOM     22  H   LIG d   1       3.699   0.996  -4.236  0.00  0.00     0.050 H 
ATOM     23  H   LIG d   1       5.622   1.199  -2.984  0.00  0.00     0.045 H 
ATOM     24  H   LIG d   1       6.056   0.051  -1.698  0.00  0.00     0.045 H 
ATOM     25  H   LIG d   1       6.988  -2.362  -2.634  0.00  0.00     0.045 H 
ATOM     26  H   LIG d   1       7.222  -2.411  -4.402  0.00  0.00     0.045 H 
ENDROOT
BRANCH   1  27
ATOM     27  N   LIG d   1       5.534  -4.006  -6.076  0.00  0.00    -0.215 N 
ATOM     28  H   LIG d   1       6.446  -4.056  -5.753  0.00  0.00     0.174 HD
BRANCH  27  29
ATOM     29  S   LIG d   1       4.720  -5.393  -6.474  0.00  0.00     0.072 S 
ATOM     30  O   LIG d   1       3.446  -5.311  -5.850  0.00  0.00    -0.150 OA
ATOM     31  O   LIG d   1       4.872  -5.565  -7.877  0.00  0.00    -0.150 OA
BRANCH  29  32
ATOM     32  C   LIG d   1       5.572  -6.733  -5.708  0.00  0.00     0.108 A 
ATOM     33  C   LIG d   1       6.930  -6.642  -5.469  0.00  0.00    -0.035 A 
ATOM     34  C   LIG d   1       7.597  -7.693  -4.868  0.00  0.00    -0.060 A 
ATOM     35  H   LIG d   1       7.470  -5.751  -5.751  0.00  0.00     0.064 H 
ATOM     36  C   LIG d   1       6.907  -8.835  -4.506  0.00  0.00    -0.062 A 
ATOM     37  H   LIG d   1       8.659  -7.623  -4.681  0.00  0.00     0.062 H 
ATOM     38  C   LIG d   1       5.548  -8.925  -4.745  0.00  0.00    -0.060 A 
ATOM     39  H   LIG d   1       7.428  -9.655  -4.038  0.00  0.00     0.062 H 
ATOM     40  C   LIG d   1       4.879  -7.872  -5.341  0.00  0.00    -0.035 A 
ATOM     41  H   LIG d   1       5.008  -9.817  -4.463  0.00  0.00     0.062 H 
ATOM     42  H   LIG d   1       3.817  -7.941  -5.524  0.00  0.00     0.064 H 
ENDBRANCH  29  32
ENDBRANCH  27  29
ENDBRANCH   1  27
BRANCH  15  43
ATOM     43  S   LIG d   1       7.489   0.277  -4.720  0.00  0.00     0.061 S 
ATOM     44  O   LIG d   1       6.597   0.892  -5.640  0.00  0.00    -0.153 OA
ATOM     45  O   LIG d   1       8.425   1.022  -3.953  0.00  0.00    -0.153 OA
BRANCH  43  46
ATOM     46  C   LIG d   1       8.418  -0.908  -5.636  0.00  0.00     0.105 A 
ATOM     47  C   LIG d   1       7.988  -1.305  -6.889  0.00  0.00    -0.035 A 
ATOM     48  C   LIG d   1       8.716  -2.234  -7.606  0.00  0.00    -0.060 A 
ATOM     49  H   LIG d   1       7.082  -0.890  -7.305  0.00  0.00     0.064 H 
ATOM     50  C   LIG d   1       9.875  -2.766  -7.073  0.00  0.00    -0.062 A 
ATOM     51  H   LIG d   1       8.380  -2.545  -8.584  0.00  0.00     0.062 H 
ATOM     52  C   LIG d   1      10.306  -2.369  -5.820  0.00  0.00    -0.060 A 
ATOM     53  H   LIG d   1      10.445  -3.493  -7.634  0.00  0.00     0.062 H 
ATOM     54  C   LIG d   1       9.579  -1.436  -5.105  0.00  0.00    -0.035 A 
ATOM     55  H   LIG d   1      11.211  -2.785  -5.403  0.00  0.00     0.062 H 
ATOM     56  H   LIG d   1       9.917  -1.123  -4.128  0.00  0.00     0.064 H 
ENDBRANCH  43  46
ENDBRANCH  15  43
TORSDOF 5
ENDMDL
MODEL 5
REMARK VINA RESULT:      -8.0      2.478      4.553
REMARK  5 active torsions:
REMARK  status: ('A' for Active; 'I' for Inactive)
REMARK    1  A    between atoms: C_4  and  S_7 
REMARK    2  A    between atoms: S_7  and  N_10 
REMARK    3  A    between atoms: N_10  and  C_11 
REMARK    4  A    between atoms: N_25  and  S_27 
REMARK    5  A    between atoms: S_27  and  C_30 
ROOT
ATOM      1  C   LIG d   1       4.852  -0.684  -7.676  0.00  0.00     0.068 A 
ATOM      2  C   LIG d   1       3.930  -1.699  -7.973  0.00  0.00    -0.033 A 
ATOM      3  C   LIG d   1       4.379  -2.982  -8.088  0.00  0.00     0.005 A 
ATOM      4  C   LIG d   1       5.745  -3.246  -7.933  0.00  0.00     0.252 A 
ATOM      5  O   LIG d   1       6.147  -4.398  -7.991  0.00  0.00    -0.268 OA
ATOM      6  N   LIG d   1       6.629  -2.239  -7.719  0.00  0.00    -0.310 N 
ATOM      7  C   LIG d   1       6.178  -0.976  -7.524  0.00  0.00     0.049 A 
ATOM      8  C   LIG d   1       7.092   0.150  -7.101  0.00  0.00     0.016 C 
ATOM      9  H   LIG d   1       6.741   1.094  -7.517  0.00  0.00     0.038 H 
ATOM     10  C   LIG d   1       8.523  -0.148  -7.558  0.00  0.00    -0.038 C 
ATOM     11  C   LIG d   1       8.910  -1.538  -7.053  0.00  0.00    -0.008 C 
ATOM     12  H   LIG d   1       9.946  -1.714  -7.343  0.00  0.00     0.033 H 
ATOM     13  C   LIG d   1       8.049  -2.591  -7.726  0.00  0.00     0.030 C 
ATOM     14  C   LIG d   1       8.825  -1.615  -5.535  0.00  0.00     0.025 C 
ATOM     15  N   LIG d   1       7.533  -1.100  -5.070  0.00  0.00    -0.176 N 
ATOM     16  C   LIG d   1       7.079   0.211  -5.564  0.00  0.00     0.029 C 
ATOM     17  H   LIG d   1       2.885  -1.468  -8.111  0.00  0.00     0.064 H 
ATOM     18  H   LIG d   1       3.687  -3.786  -8.295  0.00  0.00     0.067 H 
ATOM     19  H   LIG d   1       9.202   0.596  -7.143  0.00  0.00     0.028 H 
ATOM     20  H   LIG d   1       8.573  -0.126  -8.647  0.00  0.00     0.028 H 
ATOM     21  H   LIG d   1       8.378  -2.708  -8.758  0.00  0.00     0.050 H 
ATOM     22  H   LIG d   1       8.179  -3.539  -7.205  0.00  0.00     0.050 H 
ATOM     23  H   LIG d   1       8.936  -2.652  -5.219  0.00  0.00     0.045 H 
ATOM     24  H   LIG d   1       9.628  -1.019  -5.098  0.00  0.00     0.045 H 
ATOM     25  H   LIG d   1       7.755   0.992  -5.218  0.00  0.00     0.045 H 
ATOM     26  H   LIG d   1       6.068   0.411  -5.209  0.00  0.00     0.045 H 
ENDROOT
BRANCH   1  27
ATOM     27  N   LIG d   1       4.410   0.639  -7.532  0.00  0.00    -0.215 N 
ATOM     28  H   LIG d   1       4.288   1.017  -6.647  0.00  0.00     0.174 HD
BRANCH  27  29
ATOM     29  S   LIG d   1       4.097   1.559  -8.873  0.00  0.00     0.072 S 
ATOM     30  O   LIG d   1       3.156   2.548  -8.478  0.00  0.00    -0.150 OA
ATOM     31  O   LIG d   1       5.356   1.889  -9.443  0.00  0.00    -0.150 OA
BRANCH  29  32
ATOM     32  C   LIG d   1       3.276   0.519 -10.036  0.00  0.00     0.108 A 
ATOM     33  C   LIG d   1       1.987   0.088  -9.788  0.00  0.00    -0.035 A 
ATOM     34  C   LIG d   1       1.343  -0.727 -10.701  0.00  0.00    -0.060 A 
ATOM     35  H   LIG d   1       1.482   0.387  -8.881  0.00  0.00     0.064 H 
ATOM     36  C   LIG d   1       1.988  -1.110 -11.861  0.00  0.00    -0.062 A 
ATOM     37  H   LIG d   1       0.336  -1.065 -10.506  0.00  0.00     0.062 H 
ATOM     38  C   LIG d   1       3.278  -0.678 -12.110  0.00  0.00    -0.060 A 
ATOM     39  H   LIG d   1       1.486  -1.747 -12.573  0.00  0.00     0.062 H 
ATOM     40  C   LIG d   1       3.920   0.142 -11.200  0.00  0.00    -0.035 A 
ATOM     41  H   LIG d   1       3.782  -0.977 -13.017  0.00  0.00     0.062 H 
ATOM     42  H   LIG d   1       4.925   0.483 -11.396  0.00  0.00     0.064 H 
ENDBRANCH  29  32
ENDBRANCH  27  29
ENDBRANCH   1  27
BRANCH  15  43
ATOM     43  S   LIG d   1       6.603  -1.974  -4.015  0.00  0.00     0.061 S 
ATOM     44  O   LIG d   1       5.997  -3.013  -4.771  0.00  0.00    -0.153 OA
ATOM     45  O   LIG d   1       7.415  -2.233  -2.877  0.00  0.00    -0.153 OA
BRANCH  43  46
ATOM     46  C   LIG d   1       5.298  -0.920  -3.473  0.00  0.00     0.105 A 
ATOM     47  C   LIG d   1       4.056  -0.993  -4.075  0.00  0.00    -0.035 A 
ATOM     48  C   LIG d   1       3.033  -0.167  -3.650  0.00  0.00    -0.060 A 
ATOM     49  H   LIG d   1       3.885  -1.696  -4.878  0.00  0.00     0.064 H 
ATOM     50  C   LIG d   1       3.252   0.732  -2.623  0.00  0.00    -0.062 A 
ATOM     51  H   LIG d   1       2.063  -0.223  -4.121  0.00  0.00     0.062 H 
ATOM     52  C   LIG d   1       4.494   0.805  -2.021  0.00  0.00    -0.060 A 
ATOM     53  H   LIG d   1       2.452   1.378  -2.291  0.00  0.00     0.062 H 
ATOM     54  C   LIG d   1       5.516  -0.025  -2.443  0.00  0.00    -0.035 A 
ATOM     55  H   LIG d   1       4.665   1.508  -1.219  0.00  0.00     0.062 H 
ATOM     56  H   LIG d   1       6.485   0.029  -1.971  0.00  0.00     0.064 H 
ENDBRANCH  43  46
ENDBRANCH  15  43
TORSDOF 5
ENDMDL
MODEL 6
REMARK VINA RESULT:      -7.9      2.844      5.923
REMARK  5 active torsions:
REMARK  status: ('A' for Active; 'I' for Inactive)
REMARK    1  A    between atoms: C_4  and  S_7 
REMARK    2  A    between atoms: S_7  and  N_10 
REMARK    3  A    between atoms: N_10  and  C_11 
REMARK    4  A    between atoms: N_25  and  S_27 
REMARK    5  A    between atoms: S_27  and  C_30 
ROOT
ATOM      1  C   LIG d   1       4.714  -3.223  -6.492  0.00  0.00     0.068 A 
ATOM      2  C   LIG d   1       5.396  -4.443  -6.363  0.00  0.00    -0.033 A 
ATOM      3  C   LIG d   1       6.138  -4.896  -7.414  0.00  0.00     0.005 A 
ATOM      4  C   LIG d   1       6.178  -4.149  -8.597  0.00  0.00     0.252 A 
ATOM      5  O   LIG d   1       6.875  -4.527  -9.526  0.00  0.00    -0.268 OA
ATOM      6  N   LIG d   1       5.451  -3.011  -8.726  0.00  0.00    -0.310 N 
ATOM      7  C   LIG d   1       4.779  -2.515  -7.658  0.00  0.00     0.049 A 
ATOM      8  C   LIG d   1       4.105  -1.163  -7.687  0.00  0.00     0.016 C 
ATOM      9  H   LIG d   1       3.220  -1.171  -7.051  0.00  0.00     0.038 H 
ATOM     10  C   LIG d   1       3.738  -0.800  -9.128  0.00  0.00    -0.038 C 
ATOM     11  C   LIG d   1       4.991  -0.931  -9.993  0.00  0.00    -0.008 C 
ATOM     12  H   LIG d   1       4.724  -0.622 -11.004  0.00  0.00     0.033 H 
ATOM     13  C   LIG d   1       5.432  -2.383 -10.047  0.00  0.00     0.030 C 
ATOM     14  C   LIG d   1       6.101  -0.015  -9.496  0.00  0.00     0.025 C 
ATOM     15  N   LIG d   1       6.296  -0.188  -8.052  0.00  0.00    -0.176 N 
ATOM     16  C   LIG d   1       5.118  -0.126  -7.171  0.00  0.00     0.029 C 
ATOM     17  H   LIG d   1       5.332  -5.013  -5.449  0.00  0.00     0.064 H 
ATOM     18  H   LIG d   1       6.690  -5.821  -7.333  0.00  0.00     0.067 H 
ATOM     19  H   LIG d   1       3.372   0.226  -9.165  0.00  0.00     0.028 H 
ATOM     20  H   LIG d   1       2.967  -1.479  -9.493  0.00  0.00     0.028 H 
ATOM     21  H   LIG d   1       4.746  -2.935 -10.690  0.00  0.00     0.050 H 
ATOM     22  H   LIG d   1       6.432  -2.433 -10.476  0.00  0.00     0.050 H 
ATOM     23  H   LIG d   1       7.028  -0.255 -10.017  0.00  0.00     0.045 H 
ATOM     24  H   LIG d   1       5.832   1.021  -9.701  0.00  0.00     0.045 H 
ATOM     25  H   LIG d   1       4.680   0.871  -7.208  0.00  0.00     0.045 H 
ATOM     26  H   LIG d   1       5.408  -0.366  -6.148  0.00  0.00     0.045 H 
ENDROOT
BRANCH   1  27
ATOM     27  N   LIG d   1       3.962  -2.727  -5.417  0.00  0.00    -0.215 N 
ATOM     28  H   LIG d   1       3.035  -2.477  -5.548  0.00  0.00     0.174 HD
BRANCH  27  29
ATOM     29  S   LIG d   1       4.659  -2.569  -3.923  0.00  0.00     0.072 S 
ATOM     30  O   LIG d   1       3.983  -3.474  -3.061  0.00  0.00    -0.150 OA
ATOM     31  O   LIG d   1       6.065  -2.614  -4.123  0.00  0.00    -0.150 OA
BRANCH  29  32
ATOM     32  C   LIG d   1       4.286  -0.947  -3.344  0.00  0.00     0.108 A 
ATOM     33  C   LIG d   1       3.429  -0.136  -4.064  0.00  0.00    -0.035 A 
ATOM     34  C   LIG d   1       3.136   1.136  -3.609  0.00  0.00    -0.060 A 
ATOM     35  H   LIG d   1       2.989  -0.496  -4.982  0.00  0.00     0.064 H 
ATOM     36  C   LIG d   1       3.699   1.598  -2.435  0.00  0.00    -0.062 A 
ATOM     37  H   LIG d   1       2.466   1.770  -4.173  0.00  0.00     0.062 H 
ATOM     38  C   LIG d   1       4.555   0.786  -1.714  0.00  0.00    -0.060 A 
ATOM     39  H   LIG d   1       3.470   2.591  -2.080  0.00  0.00     0.062 H 
ATOM     40  C   LIG d   1       4.845  -0.488  -2.165  0.00  0.00    -0.035 A 
ATOM     41  H   LIG d   1       4.996   1.147  -0.796  0.00  0.00     0.062 H 
ATOM     42  H   LIG d   1       5.510  -1.123  -1.600  0.00  0.00     0.064 H 
ENDBRANCH  29  32
ENDBRANCH  27  29
ENDBRANCH   1  27
BRANCH  15  43
ATOM     43  S   LIG d   1       7.807  -0.450  -7.428  0.00  0.00     0.061 S 
ATOM     44  O   LIG d   1       7.784  -1.740  -6.833  0.00  0.00    -0.153 OA
ATOM     45  O   LIG d   1       8.734  -0.095  -8.445  0.00  0.00    -0.153 OA
BRANCH  43  46
ATOM     46  C   LIG d   1       8.035   0.704  -6.114  0.00  0.00     0.105 A 
ATOM     47  C   LIG d   1       8.689   1.900  -6.350  0.00  0.00    -0.035 A 
ATOM     48  C   LIG d   1       8.867   2.804  -5.321  0.00  0.00    -0.060 A 
ATOM     49  H   LIG d   1       9.061   2.125  -7.339  0.00  0.00     0.064 H 
ATOM     50  C   LIG d   1       8.391   2.514  -4.056  0.00  0.00    -0.062 A 
ATOM     51  H   LIG d   1       9.379   3.737  -5.505  0.00  0.00     0.062 H 
ATOM     52  C   LIG d   1       7.737   1.319  -3.820  0.00  0.00    -0.060 A 
ATOM     53  H   LIG d   1       8.531   3.221  -3.251  0.00  0.00     0.062 H 
ATOM     54  C   LIG d   1       7.555   0.416  -4.851  0.00  0.00    -0.035 A 
ATOM     55  H   LIG d   1       7.366   1.092  -2.832  0.00  0.00     0.062 H 
ATOM     56  H   LIG d   1       7.041  -0.515  -4.668  0.00  0.00     0.064 H 
ENDBRANCH  43  46
ENDBRANCH  15  43
TORSDOF 5
ENDMDL
MODEL 7
REMARK VINA RESULT:      -7.6      3.309      8.640
REMARK  5 active torsions:
REMARK  status: ('A' for Active; 'I' for Inactive)
REMARK    1  A    between atoms: C_4  and  S_7 
REMARK    2  A    between atoms: S_7  and  N_10 
REMARK    3  A    between atoms: N_10  and  C_11 
REMARK    4  A    between atoms: N_25  and  S_27 
REMARK    5  A    between atoms: S_27  and  C_30 
ROOT
ATOM      1  C   LIG d   1       3.828  -0.719  -7.549  0.00  0.00     0.068 A 
ATOM      2  C   LIG d   1       3.139   0.449  -7.189  0.00  0.00    -0.033 A 
ATOM      3  C   LIG d   1       3.045   1.463  -8.097  0.00  0.00     0.005 A 
ATOM      4  C   LIG d   1       3.659   1.322  -9.347  0.00  0.00     0.252 A 
ATOM      5  O   LIG d   1       3.542   2.208 -10.180  0.00  0.00    -0.268 OA
ATOM      6  N   LIG d   1       4.383   0.215  -9.646  0.00  0.00    -0.310 N 
ATOM      7  C   LIG d   1       4.411  -0.827  -8.780  0.00  0.00     0.049 A 
ATOM      8  C   LIG d   1       5.044  -2.152  -9.133  0.00  0.00     0.016 C 
ATOM      9  H   LIG d   1       5.462  -2.618  -8.241  0.00  0.00     0.038 H 
ATOM     10  C   LIG d   1       6.127  -1.940 -10.195  0.00  0.00    -0.038 C 
ATOM     11  C   LIG d   1       5.512  -1.170 -11.363  0.00  0.00    -0.008 C 
ATOM     12  H   LIG d   1       6.281  -1.072 -12.130  0.00  0.00     0.033 H 
ATOM     13  C   LIG d   1       5.116   0.224 -10.912  0.00  0.00     0.030 C 
ATOM     14  C   LIG d   1       4.339  -1.930 -11.966  0.00  0.00     0.025 C 
ATOM     15  N   LIG d   1       3.408  -2.350 -10.912  0.00  0.00    -0.176 N 
ATOM     16  C   LIG d   1       3.947  -3.049  -9.734  0.00  0.00     0.029 C 
ATOM     17  H   LIG d   1       2.693   0.544  -6.212  0.00  0.00     0.064 H 
ATOM     18  H   LIG d   1       2.501   2.365  -7.853  0.00  0.00     0.067 H 
ATOM     19  H   LIG d   1       6.492  -2.906 -10.543  0.00  0.00     0.028 H 
ATOM     20  H   LIG d   1       6.950  -1.366  -9.769  0.00  0.00     0.028 H 
ATOM     21  H   LIG d   1       6.018   0.825 -10.793  0.00  0.00     0.050 H 
ATOM     22  H   LIG d   1       4.490   0.679 -11.679  0.00  0.00     0.050 H 
ATOM     23  H   LIG d   1       3.817  -1.287 -12.674  0.00  0.00     0.045 H 
ATOM     24  H   LIG d   1       4.711  -2.811 -12.489  0.00  0.00     0.045 H 
ATOM     25  H   LIG d   1       4.373  -4.006 -10.034  0.00  0.00     0.045 H 
ATOM     26  H   LIG d   1       3.155  -3.208  -9.003  0.00  0.00     0.045 H 
ENDROOT
BRANCH   1  27
ATOM     27  N   LIG d   1       3.918  -1.783  -6.640  0.00  0.00    -0.215 N 
ATOM     28  H   LIG d   1       3.271  -2.504  -6.671  0.00  0.00     0.174 HD
BRANCH  27  29
ATOM     29  S   LIG d   1       5.132  -1.809  -5.513  0.00  0.00     0.072 S 
ATOM     30  O   LIG d   1       5.145  -3.118  -4.960  0.00  0.00    -0.150 OA
ATOM     31  O   LIG d   1       6.274  -1.232  -6.132  0.00  0.00    -0.150 OA
BRANCH  29  32
ATOM     32  C   LIG d   1       4.659  -0.717  -4.213  0.00  0.00     0.108 A 
ATOM     33  C   LIG d   1       5.573   0.184  -3.702  0.00  0.00    -0.035 A 
ATOM     34  C   LIG d   1       5.201   1.041  -2.683  0.00  0.00    -0.060 A 
ATOM     35  H   LIG d   1       6.577   0.220  -4.098  0.00  0.00     0.064 H 
ATOM     36  C   LIG d   1       3.916   0.997  -2.175  0.00  0.00    -0.062 A 
ATOM     37  H   LIG d   1       5.916   1.746  -2.282  0.00  0.00     0.062 H 
ATOM     38  C   LIG d   1       3.002   0.094  -2.687  0.00  0.00    -0.060 A 
ATOM     39  H   LIG d   1       3.627   1.665  -1.379  0.00  0.00     0.062 H 
ATOM     40  C   LIG d   1       3.371  -0.759  -3.710  0.00  0.00    -0.035 A 
ATOM     41  H   LIG d   1       1.998   0.059  -2.290  0.00  0.00     0.062 H 
ATOM     42  H   LIG d   1       2.657  -1.460  -4.113  0.00  0.00     0.064 H 
ENDBRANCH  29  32
ENDBRANCH  27  29
ENDBRANCH   1  27
BRANCH  15  43
ATOM     43  S   LIG d   1       1.786  -2.042 -11.044  0.00  0.00     0.061 S 
ATOM     44  O   LIG d   1       1.339  -1.654  -9.752  0.00  0.00    -0.153 OA
ATOM     45  O   LIG d   1       1.621  -1.214 -12.188  0.00  0.00    -0.153 OA
BRANCH  43  46
ATOM     46  C   LIG d   1       0.993  -3.573 -11.412  0.00  0.00     0.105 A 
ATOM     47  C   LIG d   1       0.021  -4.069 -10.563  0.00  0.00    -0.035 A 
ATOM     48  C   LIG d   1      -0.600  -5.269 -10.851  0.00  0.00    -0.060 A 
ATOM     49  H   LIG d   1      -0.251  -3.519  -9.674  0.00  0.00     0.064 H 
ATOM     50  C   LIG d   1      -0.250  -5.973 -11.989  0.00  0.00    -0.062 A 
ATOM     51  H   LIG d   1      -1.358  -5.657 -10.188  0.00  0.00     0.062 H 
ATOM     52  C   LIG d   1       0.721  -5.477 -12.838  0.00  0.00    -0.060 A 
ATOM     53  H   LIG d   1      -0.736  -6.911 -12.214  0.00  0.00     0.062 H 
ATOM     54  C   LIG d   1       1.339  -4.273 -12.551  0.00  0.00    -0.035 A 
ATOM     55  H   LIG d   1       0.995  -6.026 -13.726  0.00  0.00     0.062 H 
ATOM     56  H   LIG d   1       2.096  -3.884 -13.216  0.00  0.00     0.064 H 
ENDBRANCH  43  46
ENDBRANCH  15  43
TORSDOF 5
ENDMDL
MODEL 8
REMARK VINA RESULT:      -7.6      3.538      5.441
REMARK  5 active torsions:
REMARK  status: ('A' for Active; 'I' for Inactive)
REMARK    1  A    between atoms: C_4  and  S_7 
REMARK    2  A    between atoms: S_7  and  N_10 
REMARK    3  A    between atoms: N_10  and  C_11 
REMARK    4  A    between atoms: N_25  and  S_27 
REMARK    5  A    between atoms: S_27  and  C_30 
ROOT
ATOM      1  C   LIG d   1       4.634  -4.857  -7.188  0.00  0.00     0.068 A 
ATOM      2  C   LIG d   1       4.587  -6.124  -6.586  0.00  0.00    -0.033 A 
ATOM      3  C   LIG d   1       5.717  -6.618  -6.003  0.00  0.00     0.005 A 
ATOM      4  C   LIG d   1       6.894  -5.862  -6.044  0.00  0.00     0.252 A 
ATOM      5  O   LIG d   1       7.898  -6.279  -5.486  0.00  0.00    -0.268 OA
ATOM      6  N   LIG d   1       6.937  -4.673  -6.695  0.00  0.00    -0.310 N 
ATOM      7  C   LIG d   1       5.798  -4.142  -7.204  0.00  0.00     0.049 A 
ATOM      8  C   LIG d   1       5.746  -2.745  -7.775  0.00  0.00     0.016 C 
ATOM      9  H   LIG d   1       5.014  -2.695  -8.580  0.00  0.00     0.038 H 
ATOM     10  C   LIG d   1       7.135  -2.339  -8.276  0.00  0.00    -0.038 C 
ATOM     11  C   LIG d   1       8.137  -2.552  -7.142  0.00  0.00    -0.008 C 
ATOM     12  H   LIG d   1       9.110  -2.212  -7.498  0.00  0.00     0.033 H 
ATOM     13  C   LIG d   1       8.245  -4.031  -6.818  0.00  0.00     0.030 C 
ATOM     14  C   LIG d   1       7.767  -1.724  -5.919  0.00  0.00     0.025 C 
ATOM     15  N   LIG d   1       6.356  -1.927  -5.574  0.00  0.00    -0.176 N 
ATOM     16  C   LIG d   1       5.345  -1.789  -6.636  0.00  0.00     0.029 C 
ATOM     17  H   LIG d   1       3.673  -6.698  -6.588  0.00  0.00     0.064 H 
ATOM     18  H   LIG d   1       5.702  -7.582  -5.515  0.00  0.00     0.067 H 
ATOM     19  H   LIG d   1       7.127  -1.289  -8.567  0.00  0.00     0.028 H 
ATOM     20  H   LIG d   1       7.411  -2.957  -9.131  0.00  0.00     0.028 H 
ATOM     21  H   LIG d   1       8.807  -4.525  -7.611  0.00  0.00     0.050 H 
ATOM     22  H   LIG d   1       8.785  -4.148  -5.879  0.00  0.00     0.050 H 
ATOM     23  H   LIG d   1       8.391  -2.025  -5.077  0.00  0.00     0.045 H 
ATOM     24  H   LIG d   1       7.938  -0.669  -6.132  0.00  0.00     0.045 H 
ATOM     25  H   LIG d   1       5.330  -0.763  -7.002  0.00  0.00     0.045 H 
ATOM     26  H   LIG d   1       4.363  -2.062  -6.251  0.00  0.00     0.045 H 
ENDROOT
BRANCH   1  27
ATOM     27  N   LIG d   1       3.479  -4.319  -7.774  0.00  0.00    -0.215 N 
ATOM     28  H   LIG d   1       2.914  -3.716  -7.268  0.00  0.00     0.174 HD
BRANCH  27  29
ATOM     29  S   LIG d   1       3.080  -4.716  -9.332  0.00  0.00     0.072 S 
ATOM     30  O   LIG d   1       4.303  -4.929 -10.023  0.00  0.00    -0.150 OA
ATOM     31  O   LIG d   1       2.067  -5.710  -9.251  0.00  0.00    -0.150 OA
BRANCH  29  32
ATOM     32  C   LIG d   1       2.332  -3.294 -10.056  0.00  0.00     0.108 A 
ATOM     33  C   LIG d   1       2.476  -2.057  -9.456  0.00  0.00    -0.035 A 
ATOM     34  C   LIG d   1       1.890  -0.941 -10.024  0.00  0.00    -0.060 A 
ATOM     35  H   LIG d   1       3.046  -1.962  -8.543  0.00  0.00     0.064 H 
ATOM     36  C   LIG d   1       1.160  -1.062 -11.192  0.00  0.00    -0.062 A 
ATOM     37  H   LIG d   1       2.002   0.026  -9.555  0.00  0.00     0.062 H 
ATOM     38  C   LIG d   1       1.017  -2.300 -11.792  0.00  0.00    -0.060 A 
ATOM     39  H   LIG d   1       0.702  -0.191 -11.635  0.00  0.00     0.062 H 
ATOM     40  C   LIG d   1       1.608  -3.415 -11.227  0.00  0.00    -0.035 A 
ATOM     41  H   LIG d   1       0.447  -2.394 -12.704  0.00  0.00     0.062 H 
ATOM     42  H   LIG d   1       1.499  -4.380 -11.698  0.00  0.00     0.064 H 
ENDBRANCH  29  32
ENDBRANCH  27  29
ENDBRANCH   1  27
BRANCH  15  43
ATOM     43  S   LIG d   1       5.908  -2.305  -4.025  0.00  0.00     0.061 S 
ATOM     44  O   LIG d   1       4.944  -3.345  -4.122  0.00  0.00    -0.153 OA
ATOM     45  O   LIG d   1       7.109  -2.445  -3.278  0.00  0.00    -0.153 OA
BRANCH  43  46
ATOM     46  C   LIG d   1       5.068  -0.901  -3.369  0.00  0.00     0.105 A 
ATOM     47  C   LIG d   1       5.766   0.266  -3.114  0.00  0.00    -0.035 A 
ATOM     48  C   LIG d   1       5.107   1.366  -2.600  0.00  0.00    -0.060 A 
ATOM     49  H   LIG d   1       6.825   0.316  -3.316  0.00  0.00     0.064 H 
ATOM     50  C   LIG d   1       3.751   1.301  -2.341  0.00  0.00    -0.062 A 
ATOM     51  H   LIG d   1       5.652   2.276  -2.400  0.00  0.00     0.062 H 
ATOM     52  C   LIG d   1       3.053   0.135  -2.596  0.00  0.00    -0.060 A 
ATOM     53  H   LIG d   1       3.236   2.161  -1.938  0.00  0.00     0.062 H 
ATOM     54  C   LIG d   1       3.711  -0.964  -3.115  0.00  0.00    -0.035 A 
ATOM     55  H   LIG d   1       1.994   0.084  -2.393  0.00  0.00     0.062 H 
ATOM     56  H   LIG d   1       3.166  -1.873  -3.318  0.00  0.00     0.064 H 
ENDBRANCH  43  46
ENDBRANCH  15  43
TORSDOF 5
ENDMDL
MODEL 9
REMARK VINA RESULT:      -7.6      2.999      7.900
REMARK  5 active torsions:
REMARK  status: ('A' for Active; 'I' for Inactive)
REMARK    1  A    between atoms: C_4  and  S_7 
REMARK    2  A    between atoms: S_7  and  N_10 
REMARK    3  A    between atoms: N_10  and  C_11 
REMARK    4  A    between atoms: N_25  and  S_27 
REMARK    5  A    between atoms: S_27  and  C_30 
ROOT
ATOM      1  C   LIG d   1       3.231   0.239  -6.980  0.00  0.00     0.068 A 
ATOM      2  C   LIG d   1       2.699   1.455  -7.437  0.00  0.00    -0.033 A 
ATOM      3  C   LIG d   1       3.249   2.042  -8.538  0.00  0.00     0.005 A 
ATOM      4  C   LIG d   1       4.342   1.432  -9.165  0.00  0.00     0.252 A 
ATOM      5  O   LIG d   1       4.812   1.929 -10.177  0.00  0.00    -0.268 OA
ATOM      6  N   LIG d   1       4.888   0.296  -8.663  0.00  0.00    -0.310 N 
ATOM      7  C   LIG d   1       4.294  -0.333  -7.618  0.00  0.00     0.049 A 
ATOM      8  C   LIG d   1       4.745  -1.691  -7.134  0.00  0.00     0.016 C 
ATOM      9  H   LIG d   1       4.588  -1.777  -6.059  0.00  0.00     0.038 H 
ATOM     10  C   LIG d   1       6.220  -1.902  -7.487  0.00  0.00    -0.038 C 
ATOM     11  C   LIG d   1       6.399  -1.642  -8.983  0.00  0.00    -0.008 C 
ATOM     12  H   LIG d   1       7.442  -1.844  -9.226  0.00  0.00     0.033 H 
ATOM     13  C   LIG d   1       6.120  -0.182  -9.290  0.00  0.00     0.030 C 
ATOM     14  C   LIG d   1       5.531  -2.577  -9.812  0.00  0.00     0.025 C 
ATOM     15  N   LIG d   1       4.149  -2.560  -9.318  0.00  0.00    -0.176 N 
ATOM     16  C   LIG d   1       3.914  -2.752  -7.878  0.00  0.00     0.029 C 
ATOM     17  H   LIG d   1       1.870   1.918  -6.924  0.00  0.00     0.064 H 
ATOM     18  H   LIG d   1       2.845   2.967  -8.923  0.00  0.00     0.067 H 
ATOM     19  H   LIG d   1       6.509  -2.927  -7.255  0.00  0.00     0.028 H 
ATOM     20  H   LIG d   1       6.836  -1.207  -6.917  0.00  0.00     0.028 H 
ATOM     21  H   LIG d   1       6.955   0.420  -8.931  0.00  0.00     0.050 H 
ATOM     22  H   LIG d   1       6.036  -0.058 -10.370  0.00  0.00     0.050 H 
ATOM     23  H   LIG d   1       5.546  -2.256 -10.853  0.00  0.00     0.045 H 
ATOM     24  H   LIG d   1       5.925  -3.591  -9.743  0.00  0.00     0.045 H 
ATOM     25  H   LIG d   1       4.234  -3.749  -7.579  0.00  0.00     0.045 H 
ATOM     26  H   LIG d   1       2.856  -2.618  -7.654  0.00  0.00     0.045 H 
ENDROOT
BRANCH   1  27
ATOM     27  N   LIG d   1       2.667  -0.393  -5.863  0.00  0.00    -0.215 N 
ATOM     28  H   LIG d   1       2.054  -1.134  -5.982  0.00  0.00     0.174 HD
BRANCH  27  29
ATOM     29  S   LIG d   1       3.050   0.126  -4.337  0.00  0.00     0.072 S 
ATOM     30  O   LIG d   1       3.133   1.543  -4.398  0.00  0.00    -0.150 OA
ATOM     31  O   LIG d   1       2.171  -0.548  -3.446  0.00  0.00    -0.150 OA
BRANCH  29  32
ATOM     32  C   LIG d   1       4.673  -0.459  -3.980  0.00  0.00     0.108 A 
ATOM     33  C   LIG d   1       4.871  -1.784  -3.640  0.00  0.00    -0.035 A 
ATOM     34  C   LIG d   1       6.145  -2.243  -3.361  0.00  0.00    -0.060 A 
ATOM     35  H   LIG d   1       4.031  -2.462  -3.593  0.00  0.00     0.064 H 
ATOM     36  C   LIG d   1       7.221  -1.378  -3.420  0.00  0.00    -0.062 A 
ATOM     37  H   LIG d   1       6.299  -3.279  -3.095  0.00  0.00     0.062 H 
ATOM     38  C   LIG d   1       7.023  -0.052  -3.760  0.00  0.00    -0.060 A 
ATOM     39  H   LIG d   1       8.215  -1.736  -3.201  0.00  0.00     0.062 H 
ATOM     40  C   LIG d   1       5.750   0.406  -4.046  0.00  0.00    -0.035 A 
ATOM     41  H   LIG d   1       7.863   0.624  -3.807  0.00  0.00     0.062 H 
ATOM     42  H   LIG d   1       5.596   1.440  -4.315  0.00  0.00     0.064 H 
ENDBRANCH  29  32
ENDBRANCH  27  29
ENDBRANCH   1  27
BRANCH  15  43
ATOM     43  S   LIG d   1       2.881  -2.329 -10.359  0.00  0.00     0.061 S 
ATOM     44  O   LIG d   1       2.040  -1.351  -9.763  0.00  0.00    -0.153 OA
ATOM     45  O   LIG d   1       3.443  -2.165 -11.654  0.00  0.00    -0.153 OA
BRANCH  43  46
ATOM     46  C   LIG d   1       1.958  -3.831 -10.397  0.00  0.00     0.105 A 
ATOM     47  C   LIG d   1       0.589  -3.796 -10.588  0.00  0.00    -0.035 A 
ATOM     48  C   LIG d   1      -0.133  -4.973 -10.618  0.00  0.00    -0.060 A 
ATOM     49  H   LIG d   1       0.086  -2.849 -10.713  0.00  0.00     0.064 H 
ATOM     50  C   LIG d   1       0.512  -6.185 -10.457  0.00  0.00    -0.062 A 
ATOM     51  H   LIG d   1      -1.203  -4.946 -10.766  0.00  0.00     0.062 H 
ATOM     52  C   LIG d   1       1.881  -6.220 -10.266  0.00  0.00    -0.060 A 
ATOM     53  H   LIG d   1      -0.054  -7.106 -10.481  0.00  0.00     0.062 H 
ATOM     54  C   LIG d   1       2.604  -5.042 -10.241  0.00  0.00    -0.035 A 
ATOM     55  H   LIG d   1       2.384  -7.167 -10.140  0.00  0.00     0.062 H 
ATOM     56  H   LIG d   1       3.674  -5.070 -10.096  0.00  0.00     0.064 H 
ENDBRANCH  43  46
ENDBRANCH  15  43
TORSDOF 5
ENDMDL
MODEL 10
REMARK VINA RESULT:      -7.6      3.672      7.814
REMARK  5 active torsions:
REMARK  status: ('A' for Active; 'I' for Inactive)
REMARK    1  A    between atoms: C_4  and  S_7 
REMARK    2  A    between atoms: S_7  and  N_10 
REMARK    3  A    between atoms: N_10  and  C_11 
REMARK    4  A    between atoms: N_25  and  S_27 
REMARK    5  A    between atoms: S_27  and  C_30 
ROOT
ATOM      1  C   LIG d   1       4.662  -2.461  -7.031  0.00  0.00     0.068 A 
ATOM      2  C   LIG d   1       4.589  -3.850  -7.225  0.00  0.00    -0.033 A 
ATOM      3  C   LIG d   1       3.794  -4.334  -8.221  0.00  0.00     0.005 A 
ATOM      4  C   LIG d   1       3.054  -3.439  -9.002  0.00  0.00     0.252 A 
ATOM      5  O   LIG d   1       2.373  -3.863  -9.924  0.00  0.00    -0.268 OA
ATOM      6  N   LIG d   1       3.081  -2.107  -8.749  0.00  0.00    -0.310 N 
ATOM      7  C   LIG d   1       3.931  -1.615  -7.815  0.00  0.00     0.049 A 
ATOM      8  C   LIG d   1       4.141  -0.132  -7.617  0.00  0.00     0.016 C 
ATOM      9  H   LIG d   1       4.363   0.079  -6.571  0.00  0.00     0.038 H 
ATOM     10  C   LIG d   1       2.894   0.631  -8.073  0.00  0.00    -0.038 C 
ATOM     11  C   LIG d   1       2.558   0.196  -9.499  0.00  0.00    -0.008 C 
ATOM     12  H   LIG d   1       1.700   0.784  -9.826  0.00  0.00     0.033 H 
ATOM     13  C   LIG d   1       2.158  -1.268  -9.513  0.00  0.00     0.030 C 
ATOM     14  C   LIG d   1       3.714   0.482 -10.448  0.00  0.00     0.025 C 
ATOM     15  N   LIG d   1       4.968  -0.043  -9.895  0.00  0.00    -0.176 N 
ATOM     16  C   LIG d   1       5.321   0.296  -8.506  0.00  0.00     0.029 C 
ATOM     17  H   LIG d   1       5.152  -4.522  -6.595  0.00  0.00     0.064 H 
ATOM     18  H   LIG d   1       3.737  -5.397  -8.406  0.00  0.00     0.067 H 
ATOM     19  H   LIG d   1       3.092   1.702  -8.052  0.00  0.00     0.028 H 
ATOM     20  H   LIG d   1       2.059   0.397  -7.412  0.00  0.00     0.028 H 
ATOM     21  H   LIG d   1       1.159  -1.364  -9.087  0.00  0.00     0.050 H 
ATOM     22  H   LIG d   1       2.135  -1.618 -10.545  0.00  0.00     0.050 H 
ATOM     23  H   LIG d   1       3.518   0.009 -11.409  0.00  0.00     0.045 H 
ATOM     24  H   LIG d   1       3.807   1.559 -10.590  0.00  0.00     0.045 H 
ATOM     25  H   LIG d   1       5.482   1.370  -8.416  0.00  0.00     0.045 H 
ATOM     26  H   LIG d   1       6.222  -0.241  -8.211  0.00  0.00     0.045 H 
ENDROOT
BRANCH   1  27
ATOM     27  N   LIG d   1       5.490  -1.940  -6.027  0.00  0.00    -0.215 N 
ATOM     28  H   LIG d   1       6.213  -1.338  -6.258  0.00  0.00     0.174 HD
BRANCH  27  29
ATOM     29  S   LIG d   1       5.232  -2.352  -4.443  0.00  0.00     0.072 S 
ATOM     30  O   LIG d   1       4.182  -3.309  -4.438  0.00  0.00    -0.150 OA
ATOM     31  O   LIG d   1       6.510  -2.620  -3.880  0.00  0.00    -0.150 OA
BRANCH  29  32
ATOM     32  C   LIG d   1       4.613  -0.919  -3.626  0.00  0.00     0.108 A 
ATOM     33  C   LIG d   1       3.634  -0.150  -4.227  0.00  0.00    -0.035 A 
ATOM     34  C   LIG d   1       3.148   0.974  -3.586  0.00  0.00    -0.060 A 
ATOM     35  H   LIG d   1       3.249  -0.427  -5.197  0.00  0.00     0.064 H 
ATOM     36  C   LIG d   1       3.640   1.329  -2.344  0.00  0.00    -0.062 A 
ATOM     37  H   LIG d   1       2.383   1.575  -4.055  0.00  0.00     0.062 H 
ATOM     38  C   LIG d   1       4.619   0.560  -1.743  0.00  0.00    -0.060 A 
ATOM     39  H   LIG d   1       3.261   2.207  -1.844  0.00  0.00     0.062 H 
ATOM     40  C   LIG d   1       5.102  -0.568  -2.381  0.00  0.00    -0.035 A 
ATOM     41  H   LIG d   1       5.004   0.837  -0.773  0.00  0.00     0.062 H 
ATOM     42  H   LIG d   1       5.863  -1.171  -1.910  0.00  0.00     0.064 H 
ENDBRANCH  29  32
ENDBRANCH  27  29
ENDBRANCH   1  27
BRANCH  15  43
ATOM     43  S   LIG d   1       5.963  -0.997 -10.812  0.00  0.00     0.061 S 
ATOM     44  O   LIG d   1       7.045  -0.175 -11.228  0.00  0.00    -0.153 OA
ATOM     45  O   LIG d   1       6.158  -2.201 -10.082  0.00  0.00    -0.153 OA
BRANCH  43  46
ATOM     46  C   LIG d   1       5.072  -1.431 -12.269  0.00  0.00     0.105 A 
ATOM     47  C   LIG d   1       4.343  -2.605 -12.310  0.00  0.00    -0.035 A 
ATOM     48  C   LIG d   1       3.644  -2.945 -13.452  0.00  0.00    -0.060 A 
ATOM     49  H   LIG d   1       4.321  -3.257 -11.449  0.00  0.00     0.064 H 
ATOM     50  C   LIG d   1       3.673  -2.110 -14.554  0.00  0.00    -0.062 A 
ATOM     51  H   LIG d   1       3.076  -3.862 -13.485  0.00  0.00     0.062 H 
ATOM     52  C   LIG d   1       4.402  -0.936 -14.514  0.00  0.00    -0.060 A 
ATOM     53  H   LIG d   1       3.127  -2.376 -15.448  0.00  0.00     0.062 H 
ATOM     54  C   LIG d   1       5.097  -0.594 -13.369  0.00  0.00    -0.035 A 
ATOM     55  H   LIG d   1       4.425  -0.285 -15.375  0.00  0.00     0.062 H 
ATOM     56  H   LIG d   1       5.663   0.325 -13.336  0.00  0.00     0.064 H 
ENDBRANCH  43  46
ENDBRANCH  15  43
TORSDOF 5
ENDMDL
