MODEL 1
REMARK VINA RESULT:      -7.3      0.000      0.000
REMARK  7 active torsions:
REMARK  status: ('A' for Active; 'I' for Inactive)
REMARK    1  A    between atoms: C_1  and  N_49 
REMARK    2  A    between atoms: C_3  and  N_19 
REMARK    3  A    between atoms: C_6  and  C_8 
REMARK    4  A    between atoms: C_10  and  C_13 
REMARK       I    between atoms: N_19  and  C_20 
REMARK    5  A    between atoms: C_20  and  C_22 
REMARK    6  A    between atoms: C_22  and  O_23 
REMARK    7  A    between atoms: O_23  and  C_24 
ROOT
ATOM      1  C   LIG d   1      11.080   3.902  -2.255  0.00  0.00    -0.012 C 
ATOM      2  C   LIG d   1      10.231   3.884  -3.550  0.00  0.00     0.069 C 
ATOM      3  H   LIG d   1      10.851   3.680  -4.422  0.00  0.00     0.055 H 
ATOM      4  C   LIG d   1       9.681   5.337  -3.588  0.00  0.00     0.023 C 
ATOM      5  C   LIG d   1      10.854   6.163  -3.018  0.00  0.00     0.061 C 
ATOM      6  H   LIG d   1      11.439   6.588  -3.834  0.00  0.00     0.095 H 
ATOM      7  H   LIG d   1      11.853   3.134  -2.298  0.00  0.00     0.083 H 
ATOM      8  H   LIG d   1      10.445   3.753  -1.382  0.00  0.00     0.083 H 
ATOM      9  H   LIG d   1       8.800   5.432  -2.955  0.00  0.00     0.035 H 
ATOM     10  H   LIG d   1       9.457   5.640  -4.610  0.00  0.00     0.035 H 
ATOM     11  N   LIG d   1      11.700   5.242  -2.241  0.00  0.00     0.243 N 
ATOM     12  H   LIG d   1      12.631   5.191  -2.672  0.00  0.00     0.204 HD
ENDROOT
BRANCH   2  13
ATOM     13  N   LIG d   1       9.139   2.912  -3.447  0.00  0.00    -0.304 N 
ATOM     14  C   LIG d   1       8.698   2.274  -4.550  0.00  0.00     0.251 C 
ATOM     15  O   LIG d   1       9.206   2.505  -5.627  0.00  0.00    -0.272 OA
ATOM     16  H   LIG d   1       8.733   2.727  -2.587  0.00  0.00     0.149 HD
BRANCH  14  17
ATOM     17  C   LIG d   1       7.576   1.275  -4.444  0.00  0.00     0.165 C 
ATOM     18  H   LIG d   1       7.042   1.225  -5.393  0.00  0.00     0.080 H 
ATOM     19  H   LIG d   1       7.985   0.293  -4.206  0.00  0.00     0.080 H 
BRANCH  17  20
ATOM     20  O   LIG d   1       6.674   1.678  -3.411  0.00  0.00    -0.483 OA
BRANCH  20  21
ATOM     21  C   LIG d   1       5.716   0.787  -3.046  0.00  0.00     0.121 A 
ATOM     22  C   LIG d   1       4.455   1.234  -2.681  0.00  0.00    -0.020 A 
ATOM     23  C   LIG d   1       3.482   0.327  -2.310  0.00  0.00    -0.058 A 
ATOM     24  H   LIG d   1       4.233   2.291  -2.687  0.00  0.00     0.065 H 
ATOM     25  C   LIG d   1       3.764  -1.027  -2.302  0.00  0.00    -0.061 A 
ATOM     26  H   LIG d   1       2.500   0.674  -2.025  0.00  0.00     0.062 H 
ATOM     27  C   LIG d   1       5.021  -1.476  -2.664  0.00  0.00    -0.058 A 
ATOM     28  H   LIG d   1       3.002  -1.736  -2.011  0.00  0.00     0.062 H 
ATOM     29  C   LIG d   1       5.996  -0.572  -3.042  0.00  0.00    -0.020 A 
ATOM     30  H   LIG d   1       5.240  -2.533  -2.656  0.00  0.00     0.062 H 
ATOM     31  H   LIG d   1       6.976  -0.923  -3.330  0.00  0.00     0.065 H 
ENDBRANCH  20  21
ENDBRANCH  17  20
ENDBRANCH  14  17
ENDBRANCH   2  13
BRANCH  11  32
ATOM     32  C   LIG d   1      11.837   5.729  -0.844  0.00  0.00    -0.042 C 
ATOM     33  H   LIG d   1      11.936   6.815  -0.839  0.00  0.00     0.078 H 
ATOM     34  H   LIG d   1      10.952   5.443  -0.275  0.00  0.00     0.078 H 
ATOM     35  H   LIG d   1      12.721   5.282  -0.391  0.00  0.00     0.078 H 
ENDBRANCH  11  32
BRANCH   5  36
ATOM     36  C   LIG d   1      10.324   7.266  -2.139  0.00  0.00     0.276 A 
ATOM     37  O   LIG d   1       9.256   7.198  -1.337  0.00  0.00    -0.332 OA
ATOM     38  N   LIG d   1       9.096   8.258  -0.770  0.00  0.00    -0.056 NA
ATOM     39  C   LIG d   1      10.021   9.108  -1.134  0.00  0.00     0.204 A 
ATOM     40  N   LIG d   1      10.820   8.472  -2.021  0.00  0.00    -0.186 NA
BRANCH  39  41
ATOM     41  C   LIG d   1      10.166  10.508  -0.663  0.00  0.00     0.041 A 
ATOM     42  C   LIG d   1      10.296  10.788   0.696  0.00  0.00     0.038 A 
ATOM     43  N   LIG d   1      10.430  12.029   1.115  0.00  0.00    -0.263 NA
ATOM     44  H   LIG d   1      10.293   9.978   1.411  0.00  0.00     0.084 H 
ATOM     45  C   LIG d   1      10.434  13.049   0.279  0.00  0.00     0.028 A 
ATOM     46  C   LIG d   1      10.303  12.855  -1.084  0.00  0.00    -0.043 A 
ATOM     47  H   LIG d   1      10.542  14.052   0.665  0.00  0.00     0.083 H 
ATOM     48  C   LIG d   1      10.166  11.568  -1.574  0.00  0.00    -0.048 A 
ATOM     49  H   LIG d   1      10.308  13.698  -1.759  0.00  0.00     0.063 H 
ATOM     50  H   LIG d   1      10.063  11.386  -2.634  0.00  0.00     0.063 H 
ENDBRANCH  39  41
ENDBRANCH   5  36
TORSDOF 7
ENDMDL
MODEL 2
REMARK VINA RESULT:      -6.9      2.125      3.394
REMARK  7 active torsions:
REMARK  status: ('A' for Active; 'I' for Inactive)
REMARK    1  A    between atoms: C_1  and  N_49 
REMARK    2  A    between atoms: C_3  and  N_19 
REMARK    3  A    between atoms: C_6  and  C_8 
REMARK    4  A    between atoms: C_10  and  C_13 
REMARK       I    between atoms: N_19  and  C_20 
REMARK    5  A    between atoms: C_20  and  C_22 
REMARK    6  A    between atoms: C_22  and  O_23 
REMARK    7  A    between atoms: O_23  and  C_24 
ROOT
ATOM      1  C   LIG d   1      10.395   1.203  -4.998  0.00  0.00    -0.012 C 
ATOM      2  C   LIG d   1       8.862   1.007  -5.100  0.00  0.00     0.069 C 
ATOM      3  H   LIG d   1       8.549   0.902  -6.139  0.00  0.00     0.055 H 
ATOM      4  C   LIG d   1       8.332   2.336  -4.494  0.00  0.00     0.023 C 
ATOM      5  C   LIG d   1       9.373   3.371  -4.972  0.00  0.00     0.061 C 
ATOM      6  H   LIG d   1       9.007   3.879  -5.864  0.00  0.00     0.095 H 
ATOM      7  H   LIG d   1      10.906   0.586  -5.737  0.00  0.00     0.083 H 
ATOM      8  H   LIG d   1      10.742   0.959  -3.994  0.00  0.00     0.083 H 
ATOM      9  H   LIG d   1       8.314   2.283  -3.406  0.00  0.00     0.035 H 
ATOM     10  H   LIG d   1       7.344   2.575  -4.886  0.00  0.00     0.035 H 
ATOM     11  N   LIG d   1      10.603   2.633  -5.301  0.00  0.00     0.243 N 
ATOM     12  H   LIG d   1      10.808   2.742  -6.301  0.00  0.00     0.204 HD
ENDROOT
BRANCH   2  13
ATOM     13  N   LIG d   1       8.426  -0.143  -4.304  0.00  0.00    -0.304 N 
ATOM     14  C   LIG d   1       7.454  -0.954  -4.768  0.00  0.00     0.251 C 
ATOM     15  O   LIG d   1       6.940  -0.731  -5.844  0.00  0.00    -0.272 OA
ATOM     16  H   LIG d   1       8.836  -0.322  -3.444  0.00  0.00     0.149 HD
BRANCH  14  17
ATOM     17  C   LIG d   1       7.006  -2.137  -3.950  0.00  0.00     0.165 C 
ATOM     18  H   LIG d   1       6.219  -2.671  -4.482  0.00  0.00     0.080 H 
ATOM     19  H   LIG d   1       7.850  -2.806  -3.784  0.00  0.00     0.080 H 
BRANCH  17  20
ATOM     20  O   LIG d   1       6.505  -1.683  -2.690  0.00  0.00    -0.483 OA
BRANCH  20  21
ATOM     21  C   LIG d   1       5.283  -1.091  -2.689  0.00  0.00     0.121 A 
ATOM     22  C   LIG d   1       5.155   0.238  -2.313  0.00  0.00    -0.020 A 
ATOM     23  C   LIG d   1       3.911   0.838  -2.312  0.00  0.00    -0.058 A 
ATOM     24  H   LIG d   1       6.028   0.803  -2.021  0.00  0.00     0.065 H 
ATOM     25  C   LIG d   1       2.793   0.115  -2.686  0.00  0.00    -0.061 A 
ATOM     26  H   LIG d   1       3.811   1.873  -2.019  0.00  0.00     0.062 H 
ATOM     27  C   LIG d   1       2.917  -1.210  -3.061  0.00  0.00    -0.058 A 
ATOM     28  H   LIG d   1       1.820   0.586  -2.686  0.00  0.00     0.062 H 
ATOM     29  C   LIG d   1       4.160  -1.813  -3.068  0.00  0.00    -0.020 A 
ATOM     30  H   LIG d   1       2.043  -1.773  -3.351  0.00  0.00     0.062 H 
ATOM     31  H   LIG d   1       4.258  -2.846  -3.366  0.00  0.00     0.065 H 
ENDBRANCH  20  21
ENDBRANCH  17  20
ENDBRANCH  14  17
ENDBRANCH   2  13
BRANCH  11  32
ATOM     32  C   LIG d   1      11.745   3.163  -4.511  0.00  0.00    -0.042 C 
ATOM     33  H   LIG d   1      11.624   4.236  -4.362  0.00  0.00     0.078 H 
ATOM     34  H   LIG d   1      11.776   2.663  -3.543  0.00  0.00     0.078 H 
ATOM     35  H   LIG d   1      12.674   2.974  -5.048  0.00  0.00     0.078 H 
ENDBRANCH  11  32
BRANCH   5  36
ATOM     36  C   LIG d   1       9.634   4.377  -3.881  0.00  0.00     0.276 A 
ATOM     37  O   LIG d   1       9.998   4.107  -2.623  0.00  0.00    -0.332 OA
ATOM     38  N   LIG d   1      10.122   5.139  -1.997  0.00  0.00    -0.056 NA
ATOM     39  C   LIG d   1       9.860   6.165  -2.764  0.00  0.00     0.204 A 
ATOM     40  N   LIG d   1       9.542   5.679  -3.985  0.00  0.00    -0.186 NA
BRANCH  39  41
ATOM     41  C   LIG d   1       9.901   7.595  -2.367  0.00  0.00     0.041 A 
ATOM     42  C   LIG d   1      10.462   8.548  -3.213  0.00  0.00     0.038 A 
ATOM     43  N   LIG d   1      10.495   9.818  -2.865  0.00  0.00    -0.263 NA
ATOM     44  H   LIG d   1      10.870   8.244  -4.166  0.00  0.00     0.084 H 
ATOM     45  C   LIG d   1      10.014  10.235  -1.710  0.00  0.00     0.028 A 
ATOM     46  C   LIG d   1       9.446   9.350  -0.812  0.00  0.00    -0.043 A 
ATOM     47  H   LIG d   1      10.064  11.285  -1.461  0.00  0.00     0.083 H 
ATOM     48  C   LIG d   1       9.383   8.006  -1.135  0.00  0.00    -0.048 A 
ATOM     49  H   LIG d   1       9.056   9.703   0.131  0.00  0.00     0.063 H 
ATOM     50  H   LIG d   1       8.945   7.291  -0.453  0.00  0.00     0.063 H 
ENDBRANCH  39  41
ENDBRANCH   5  36
TORSDOF 7
ENDMDL
MODEL 3
REMARK VINA RESULT:      -6.8      9.283     15.361
REMARK  7 active torsions:
REMARK  status: ('A' for Active; 'I' for Inactive)
REMARK    1  A    between atoms: C_1  and  N_49 
REMARK    2  A    between atoms: C_3  and  N_19 
REMARK    3  A    between atoms: C_6  and  C_8 
REMARK    4  A    between atoms: C_10  and  C_13 
REMARK       I    between atoms: N_19  and  C_20 
REMARK    5  A    between atoms: C_20  and  C_22 
REMARK    6  A    between atoms: C_22  and  O_23 
REMARK    7  A    between atoms: O_23  and  C_24 
ROOT
ATOM      1  C   LIG d   1       2.065  -0.432 -10.186  0.00  0.00    -0.012 C 
ATOM      2  C   LIG d   1       2.980  -0.891  -9.025  0.00  0.00     0.069 C 
ATOM      3  H   LIG d   1       4.003  -0.543  -9.172  0.00  0.00     0.055 H 
ATOM      4  C   LIG d   1       2.898  -2.437  -9.149  0.00  0.00     0.023 C 
ATOM      5  C   LIG d   1       2.814  -2.656 -10.674  0.00  0.00     0.061 C 
ATOM      6  H   LIG d   1       3.803  -2.889 -11.071  0.00  0.00     0.095 H 
ATOM      7  H   LIG d   1       2.335   0.574 -10.508  0.00  0.00     0.083 H 
ATOM      8  H   LIG d   1       1.019  -0.465  -9.881  0.00  0.00     0.083 H 
ATOM      9  H   LIG d   1       2.004  -2.816  -8.656  0.00  0.00     0.035 H 
ATOM     10  H   LIG d   1       3.793  -2.908  -8.741  0.00  0.00     0.035 H 
ATOM     11  N   LIG d   1       2.334  -1.398 -11.270  0.00  0.00     0.243 N 
ATOM     12  H   LIG d   1       3.059  -1.019 -11.892  0.00  0.00     0.204 HD
ENDROOT
BRANCH   2  13
ATOM     13  N   LIG d   1       2.456  -0.439  -7.734  0.00  0.00    -0.304 N 
ATOM     14  C   LIG d   1       3.077   0.552  -7.063  0.00  0.00     0.251 C 
ATOM     15  O   LIG d   1       4.070   1.070  -7.529  0.00  0.00    -0.272 OA
ATOM     16  H   LIG d   1       1.662  -0.853  -7.361  0.00  0.00     0.149 HD
BRANCH  14  17
ATOM     17  C   LIG d   1       2.537   1.016  -5.736  0.00  0.00     0.165 C 
ATOM     18  H   LIG d   1       3.273   1.653  -5.246  0.00  0.00     0.080 H 
ATOM     19  H   LIG d   1       1.618   1.580  -5.894  0.00  0.00     0.080 H 
BRANCH  17  20
ATOM     20  O   LIG d   1       2.263  -0.118  -4.909  0.00  0.00    -0.483 OA
BRANCH  20  21
ATOM     21  C   LIG d   1       3.031  -0.272  -3.799  0.00  0.00     0.121 A 
ATOM     22  C   LIG d   1       3.423  -1.540  -3.397  0.00  0.00    -0.020 A 
ATOM     23  C   LIG d   1       4.204  -1.695  -2.268  0.00  0.00    -0.058 A 
ATOM     24  H   LIG d   1       3.118  -2.406  -3.966  0.00  0.00     0.065 H 
ATOM     25  C   LIG d   1       4.594  -0.587  -1.538  0.00  0.00    -0.061 A 
ATOM     26  H   LIG d   1       4.509  -2.682  -1.953  0.00  0.00     0.062 H 
ATOM     27  C   LIG d   1       4.204   0.678  -1.937  0.00  0.00    -0.058 A 
ATOM     28  H   LIG d   1       5.204  -0.709  -0.655  0.00  0.00     0.062 H 
ATOM     29  C   LIG d   1       3.428   0.839  -3.069  0.00  0.00    -0.020 A 
ATOM     30  H   LIG d   1       4.509   1.542  -1.365  0.00  0.00     0.062 H 
ATOM     31  H   LIG d   1       3.128   1.827  -3.383  0.00  0.00     0.065 H 
ENDBRANCH  20  21
ENDBRANCH  17  20
ENDBRANCH  14  17
ENDBRANCH   2  13
BRANCH  11  32
ATOM     32  C   LIG d   1       1.098  -1.643 -12.058  0.00  0.00    -0.042 C 
ATOM     33  H   LIG d   1       0.715  -0.699 -12.447  0.00  0.00     0.078 H 
ATOM     34  H   LIG d   1       1.328  -2.311 -12.888  0.00  0.00     0.078 H 
ATOM     35  H   LIG d   1       0.347  -2.103 -11.417  0.00  0.00     0.078 H 
ENDBRANCH  11  32
BRANCH   5  36
ATOM     36  C   LIG d   1       1.862  -3.783 -10.979  0.00  0.00     0.276 A 
ATOM     37  O   LIG d   1       1.868  -4.554 -12.072  0.00  0.00    -0.332 OA
ATOM     38  N   LIG d   1       0.968  -5.365 -12.013  0.00  0.00    -0.056 NA
ATOM     39  C   LIG d   1       0.297  -5.212 -10.900  0.00  0.00     0.204 A 
ATOM     40  N   LIG d   1       0.870  -4.189 -10.226  0.00  0.00    -0.186 NA
BRANCH  39  41
ATOM     41  C   LIG d   1      -0.875  -6.010 -10.462  0.00  0.00     0.041 A 
ATOM     42  C   LIG d   1      -2.012  -5.381  -9.960  0.00  0.00     0.038 A 
ATOM     43  N   LIG d   1      -3.055  -6.088  -9.575  0.00  0.00    -0.263 NA
ATOM     44  H   LIG d   1      -2.040  -4.303  -9.891  0.00  0.00     0.084 H 
ATOM     45  C   LIG d   1      -3.063  -7.405  -9.636  0.00  0.00     0.028 A 
ATOM     46  C   LIG d   1      -1.971  -8.104 -10.116  0.00  0.00    -0.043 A 
ATOM     47  H   LIG d   1      -3.937  -7.947  -9.306  0.00  0.00     0.083 H 
ATOM     48  C   LIG d   1      -0.853  -7.406 -10.538  0.00  0.00    -0.048 A 
ATOM     49  H   LIG d   1      -1.989  -9.183 -10.161  0.00  0.00     0.063 H 
ATOM     50  H   LIG d   1       0.014  -7.925 -10.918  0.00  0.00     0.063 H 
ENDBRANCH  39  41
ENDBRANCH   5  36
TORSDOF 7
ENDMDL
MODEL 4
REMARK VINA RESULT:      -6.8      1.358      1.731
REMARK  7 active torsions:
REMARK  status: ('A' for Active; 'I' for Inactive)
REMARK    1  A    between atoms: C_1  and  N_49 
REMARK    2  A    between atoms: C_3  and  N_19 
REMARK    3  A    between atoms: C_6  and  C_8 
REMARK    4  A    between atoms: C_10  and  C_13 
REMARK       I    between atoms: N_19  and  C_20 
REMARK    5  A    between atoms: C_20  and  C_22 
REMARK    6  A    between atoms: C_22  and  O_23 
REMARK    7  A    between atoms: O_23  and  C_24 
ROOT
ATOM      1  C   LIG d   1      11.630   3.411  -3.604  0.00  0.00    -0.012 C 
ATOM      2  C   LIG d   1      10.238   3.491  -4.278  0.00  0.00     0.069 C 
ATOM      3  H   LIG d   1      10.332   3.652  -5.352  0.00  0.00     0.055 H 
ATOM      4  C   LIG d   1       9.620   4.735  -3.583  0.00  0.00     0.023 C 
ATOM      5  C   LIG d   1      10.838   5.664  -3.394  0.00  0.00     0.061 C 
ATOM      6  H   LIG d   1      10.874   6.397  -4.201  0.00  0.00     0.095 H 
ATOM      7  H   LIG d   1      12.335   2.886  -4.249  0.00  0.00     0.083 H 
ATOM      8  H   LIG d   1      11.556   2.914  -2.637  0.00  0.00     0.083 H 
ATOM      9  H   LIG d   1       9.190   4.463  -2.619  0.00  0.00     0.035 H 
ATOM     10  H   LIG d   1       8.872   5.205  -4.221  0.00  0.00     0.035 H 
ATOM     11  N   LIG d   1      12.043   4.821  -3.448  0.00  0.00     0.243 N 
ATOM     12  H   LIG d   1      12.616   5.098  -4.254  0.00  0.00     0.204 HD
ENDROOT
BRANCH   2  13
ATOM     13  N   LIG d   1       9.451   2.288  -3.999  0.00  0.00    -0.304 N 
ATOM     14  C   LIG d   1       8.880   1.604  -5.011  0.00  0.00     0.251 C 
ATOM     15  O   LIG d   1       9.020   1.986  -6.154  0.00  0.00    -0.272 OA
ATOM     16  H   LIG d   1       9.339   1.982  -3.085  0.00  0.00     0.149 HD
BRANCH  14  17
ATOM     17  C   LIG d   1       8.071   0.367  -4.723  0.00  0.00     0.165 C 
ATOM     18  H   LIG d   1       8.288  -0.393  -5.474  0.00  0.00     0.080 H 
ATOM     19  H   LIG d   1       8.328  -0.015  -3.736  0.00  0.00     0.080 H 
BRANCH  17  20
ATOM     20  O   LIG d   1       6.678   0.688  -4.761  0.00  0.00    -0.483 OA
BRANCH  20  21
ATOM     21  C   LIG d   1       5.913   0.232  -3.736  0.00  0.00     0.121 A 
ATOM     22  C   LIG d   1       5.418   1.119  -2.790  0.00  0.00    -0.020 A 
ATOM     23  C   LIG d   1       4.640   0.653  -1.748  0.00  0.00    -0.058 A 
ATOM     24  H   LIG d   1       5.643   2.173  -2.868  0.00  0.00     0.065 H 
ATOM     25  C   LIG d   1       4.353  -0.696  -1.648  0.00  0.00    -0.061 A 
ATOM     26  H   LIG d   1       4.256   1.343  -1.011  0.00  0.00     0.062 H 
ATOM     27  C   LIG d   1       4.844  -1.582  -2.589  0.00  0.00    -0.058 A 
ATOM     28  H   LIG d   1       3.744  -1.059  -0.832  0.00  0.00     0.062 H 
ATOM     29  C   LIG d   1       5.619  -1.120  -3.636  0.00  0.00    -0.020 A 
ATOM     30  H   LIG d   1       4.620  -2.634  -2.508  0.00  0.00     0.062 H 
ATOM     31  H   LIG d   1       5.998  -1.811  -4.374  0.00  0.00     0.065 H 
ENDBRANCH  20  21
ENDBRANCH  17  20
ENDBRANCH  14  17
ENDBRANCH   2  13
BRANCH  11  32
ATOM     32  C   LIG d   1      12.841   4.986  -2.205  0.00  0.00    -0.042 C 
ATOM     33  H   LIG d   1      12.456   5.829  -1.629  0.00  0.00     0.078 H 
ATOM     34  H   LIG d   1      12.770   4.077  -1.609  0.00  0.00     0.078 H 
ATOM     35  H   LIG d   1      13.882   5.170  -2.466  0.00  0.00     0.078 H 
ENDBRANCH  11  32
BRANCH   5  36
ATOM     36  C   LIG d   1      10.744   6.369  -2.066  0.00  0.00     0.276 A 
ATOM     37  O   LIG d   1      10.229   5.871  -0.937  0.00  0.00    -0.332 OA
ATOM     38  N   LIG d   1      10.300   6.695  -0.049  0.00  0.00    -0.056 NA
ATOM     39  C   LIG d   1      10.856   7.791  -0.496  0.00  0.00     0.204 A 
ATOM     40  N   LIG d   1      11.146   7.588  -1.802  0.00  0.00    -0.186 NA
BRANCH  39  41
ATOM     41  C   LIG d   1      11.118   9.027   0.283  0.00  0.00     0.041 A 
ATOM     42  C   LIG d   1      10.577  10.245  -0.120  0.00  0.00     0.038 A 
ATOM     43  N   LIG d   1      10.805  11.342   0.573  0.00  0.00    -0.263 NA
ATOM     44  H   LIG d   1       9.962  10.290  -1.007  0.00  0.00     0.084 H 
ATOM     45  C   LIG d   1      11.554  11.336   1.657  0.00  0.00     0.028 A 
ATOM     46  C   LIG d   1      12.133  10.168   2.119  0.00  0.00    -0.043 A 
ATOM     47  H   LIG d   1      11.719  12.259   2.195  0.00  0.00     0.083 H 
ATOM     48  C   LIG d   1      11.918   8.988   1.428  0.00  0.00    -0.048 A 
ATOM     49  H   LIG d   1      12.745  10.175   3.009  0.00  0.00     0.063 H 
ATOM     50  H   LIG d   1      12.356   8.060   1.766  0.00  0.00     0.063 H 
ENDBRANCH  39  41
ENDBRANCH   5  36
TORSDOF 7
ENDMDL
MODEL 5
REMARK VINA RESULT:      -6.7      2.521      3.536
REMARK  7 active torsions:
REMARK  status: ('A' for Active; 'I' for Inactive)
REMARK    1  A    between atoms: C_1  and  N_49 
REMARK    2  A    between atoms: C_3  and  N_19 
REMARK    3  A    between atoms: C_6  and  C_8 
REMARK    4  A    between atoms: C_10  and  C_13 
REMARK       I    between atoms: N_19  and  C_20 
REMARK    5  A    between atoms: C_20  and  C_22 
REMARK    6  A    between atoms: C_22  and  O_23 
REMARK    7  A    between atoms: O_23  and  C_24 
ROOT
ATOM      1  C   LIG d   1      10.099   2.465  -6.121  0.00  0.00    -0.012 C 
ATOM      2  C   LIG d   1       8.613   2.139  -5.832  0.00  0.00     0.069 C 
ATOM      3  H   LIG d   1       7.966   2.536  -6.614  0.00  0.00     0.055 H 
ATOM      4  C   LIG d   1       8.380   2.885  -4.489  0.00  0.00     0.023 C 
ATOM      5  C   LIG d   1       9.249   4.151  -4.643  0.00  0.00     0.061 C 
ATOM      6  H   LIG d   1       8.630   4.987  -4.970  0.00  0.00     0.095 H 
ATOM      7  H   LIG d   1      10.303   2.391  -7.189  0.00  0.00     0.083 H 
ATOM      8  H   LIG d   1      10.750   1.795  -5.561  0.00  0.00     0.083 H 
ATOM      9  H   LIG d   1       8.725   2.282  -3.649  0.00  0.00     0.035 H 
ATOM     10  H   LIG d   1       7.330   3.150  -4.368  0.00  0.00     0.035 H 
ATOM     11  N   LIG d   1      10.262   3.863  -5.672  0.00  0.00     0.243 N 
ATOM     12  H   LIG d   1      10.124   4.495  -6.470  0.00  0.00     0.204 HD
ENDROOT
BRANCH   2  13
ATOM     13  N   LIG d   1       8.414   0.697  -5.673  0.00  0.00    -0.304 N 
ATOM     14  C   LIG d   1       7.276   0.120  -6.109  0.00  0.00     0.251 C 
ATOM     15  O   LIG d   1       6.417   0.797  -6.634  0.00  0.00    -0.272 OA
ATOM     16  H   LIG d   1       9.101   0.155  -5.254  0.00  0.00     0.149 HD
BRANCH  14  17
ATOM     17  C   LIG d   1       7.072  -1.363  -5.946  0.00  0.00     0.165 C 
ATOM     18  H   LIG d   1       6.073  -1.633  -6.286  0.00  0.00     0.080 H 
ATOM     19  H   LIG d   1       7.814  -1.899  -6.538  0.00  0.00     0.080 H 
BRANCH  17  20
ATOM     20  O   LIG d   1       7.218  -1.716  -4.568  0.00  0.00    -0.483 OA
BRANCH  20  21
ATOM     21  C   LIG d   1       6.141  -1.522  -3.765  0.00  0.00     0.121 A 
ATOM     22  C   LIG d   1       6.040  -0.365  -3.005  0.00  0.00    -0.020 A 
ATOM     23  C   LIG d   1       4.943  -0.169  -2.188  0.00  0.00    -0.058 A 
ATOM     24  H   LIG d   1       6.818   0.382  -3.053  0.00  0.00     0.065 H 
ATOM     25  C   LIG d   1       3.946  -1.126  -2.127  0.00  0.00    -0.061 A 
ATOM     26  H   LIG d   1       4.864   0.730  -1.597  0.00  0.00     0.062 H 
ATOM     27  C   LIG d   1       4.045  -2.280  -2.881  0.00  0.00    -0.058 A 
ATOM     28  H   LIG d   1       3.089  -0.972  -1.487  0.00  0.00     0.062 H 
ATOM     29  C   LIG d   1       5.137  -2.478  -3.704  0.00  0.00    -0.020 A 
ATOM     30  H   LIG d   1       3.266  -3.026  -2.831  0.00  0.00     0.062 H 
ATOM     31  H   LIG d   1       5.211  -3.377  -4.298  0.00  0.00     0.065 H 
ENDBRANCH  20  21
ENDBRANCH  17  20
ENDBRANCH  14  17
ENDBRANCH   2  13
BRANCH  11  32
ATOM     32  C   LIG d   1      11.626   4.068  -5.120  0.00  0.00    -0.042 C 
ATOM     33  H   LIG d   1      11.610   4.877  -4.388  0.00  0.00     0.078 H 
ATOM     34  H   LIG d   1      11.961   3.150  -4.638  0.00  0.00     0.078 H 
ATOM     35  H   LIG d   1      12.308   4.325  -5.929  0.00  0.00     0.078 H 
ENDBRANCH  11  32
BRANCH   5  36
ATOM     36  C   LIG d   1       9.908   4.485  -3.330  0.00  0.00     0.276 A 
ATOM     37  O   LIG d   1      10.631   3.655  -2.571  0.00  0.00    -0.332 OA
ATOM     38  N   LIG d   1      11.015   4.231  -1.576  0.00  0.00    -0.056 NA
ATOM     39  C   LIG d   1      10.594   5.469  -1.582  0.00  0.00     0.204 A 
ATOM     40  N   LIG d   1       9.875   5.640  -2.714  0.00  0.00    -0.186 NA
BRANCH  39  41
ATOM     41  C   LIG d   1      10.854   6.494  -0.539  0.00  0.00     0.041 A 
ATOM     42  C   LIG d   1      11.161   6.113   0.765  0.00  0.00     0.038 A 
ATOM     43  N   LIG d   1      11.397   7.021   1.690  0.00  0.00    -0.263 NA
ATOM     44  H   LIG d   1      11.211   5.065   1.019  0.00  0.00     0.084 H 
ATOM     45  C   LIG d   1      11.342   8.312   1.428  0.00  0.00     0.028 A 
ATOM     46  C   LIG d   1      11.037   8.770   0.159  0.00  0.00    -0.043 A 
ATOM     47  H   LIG d   1      11.538   9.024   2.216  0.00  0.00     0.083 H 
ATOM     48  C   LIG d   1      10.787   7.855  -0.849  0.00  0.00    -0.048 A 
ATOM     49  H   LIG d   1      10.995   9.830  -0.044  0.00  0.00     0.063 H 
ATOM     50  H   LIG d   1      10.547   8.184  -1.849  0.00  0.00     0.063 H 
ENDBRANCH  39  41
ENDBRANCH   5  36
TORSDOF 7
ENDMDL
MODEL 6
REMARK VINA RESULT:      -6.3      2.086      2.473
REMARK  7 active torsions:
REMARK  status: ('A' for Active; 'I' for Inactive)
REMARK    1  A    between atoms: C_1  and  N_49 
REMARK    2  A    between atoms: C_3  and  N_19 
REMARK    3  A    between atoms: C_6  and  C_8 
REMARK    4  A    between atoms: C_10  and  C_13 
REMARK       I    between atoms: N_19  and  C_20 
REMARK    5  A    between atoms: C_20  and  C_22 
REMARK    6  A    between atoms: C_22  and  O_23 
REMARK    7  A    between atoms: O_23  and  C_24 
ROOT
ATOM      1  C   LIG d   1      10.978   3.316  -2.327  0.00  0.00    -0.012 C 
ATOM      2  C   LIG d   1      10.800   2.903  -3.809  0.00  0.00     0.069 C 
ATOM      3  H   LIG d   1      11.499   2.111  -4.081  0.00  0.00     0.055 H 
ATOM      4  C   LIG d   1      11.144   4.224  -4.550  0.00  0.00     0.023 C 
ATOM      5  C   LIG d   1      12.261   4.829  -3.674  0.00  0.00     0.061 C 
ATOM      6  H   LIG d   1      13.236   4.587  -4.096  0.00  0.00     0.095 H 
ATOM      7  H   LIG d   1      11.192   2.442  -1.712  0.00  0.00     0.083 H 
ATOM      8  H   LIG d   1      10.086   3.827  -1.966  0.00  0.00     0.083 H 
ATOM      9  H   LIG d   1      10.278   4.884  -4.582  0.00  0.00     0.035 H 
ATOM     10  H   LIG d   1      11.511   4.020  -5.556  0.00  0.00     0.035 H 
ATOM     11  N   LIG d   1      12.144   4.223  -2.337  0.00  0.00     0.243 N 
ATOM     12  H   LIG d   1      12.995   3.685  -2.133  0.00  0.00     0.204 HD
ENDROOT
BRANCH   2  13
ATOM     13  N   LIG d   1       9.419   2.494  -4.077  0.00  0.00    -0.304 N 
ATOM     14  C   LIG d   1       9.169   1.316  -4.682  0.00  0.00     0.251 C 
ATOM     15  O   LIG d   1      10.089   0.594  -5.005  0.00  0.00    -0.272 OA
ATOM     16  H   LIG d   1       8.684   3.071  -3.819  0.00  0.00     0.149 HD
BRANCH  14  17
ATOM     17  C   LIG d   1       7.749   0.896  -4.957  0.00  0.00     0.165 C 
ATOM     18  H   LIG d   1       7.068   1.683  -4.634  0.00  0.00     0.080 H 
ATOM     19  H   LIG d   1       7.621   0.722  -6.025  0.00  0.00     0.080 H 
BRANCH  17  20
ATOM     20  O   LIG d   1       7.460  -0.308  -4.241  0.00  0.00    -0.483 OA
BRANCH  20  21
ATOM     21  C   LIG d   1       6.370  -0.297  -3.432  0.00  0.00     0.121 A 
ATOM     22  C   LIG d   1       5.882   0.904  -2.938  0.00  0.00    -0.020 A 
ATOM     23  C   LIG d   1       4.773   0.913  -2.115  0.00  0.00    -0.058 A 
ATOM     24  H   LIG d   1       6.370   1.833  -3.198  0.00  0.00     0.065 H 
ATOM     25  C   LIG d   1       4.149  -0.275  -1.782  0.00  0.00    -0.061 A 
ATOM     26  H   LIG d   1       4.394   1.848  -1.730  0.00  0.00     0.062 H 
ATOM     27  C   LIG d   1       4.633  -1.474  -2.271  0.00  0.00    -0.058 A 
ATOM     28  H   LIG d   1       3.281  -0.266  -1.137  0.00  0.00     0.062 H 
ATOM     29  C   LIG d   1       5.738  -1.487  -3.100  0.00  0.00    -0.020 A 
ATOM     30  H   LIG d   1       4.144  -2.400  -2.009  0.00  0.00     0.062 H 
ATOM     31  H   LIG d   1       6.113  -2.423  -3.487  0.00  0.00     0.065 H 
ENDBRANCH  20  21
ENDBRANCH  17  20
ENDBRANCH  14  17
ENDBRANCH   2  13
BRANCH  11  32
ATOM     32  C   LIG d   1      11.979   5.281  -1.307  0.00  0.00    -0.042 C 
ATOM     33  H   LIG d   1      12.088   6.264  -1.767  0.00  0.00     0.078 H 
ATOM     34  H   LIG d   1      10.988   5.198  -0.862  0.00  0.00     0.078 H 
ATOM     35  H   LIG d   1      12.737   5.155  -0.535  0.00  0.00     0.078 H 
ENDBRANCH  11  32
BRANCH   5  36
ATOM     36  C   LIG d   1      12.095   6.325  -3.594  0.00  0.00     0.276 A 
ATOM     37  O   LIG d   1      13.076   7.227  -3.476  0.00  0.00    -0.332 OA
ATOM     38  N   LIG d   1      12.608   8.345  -3.433  0.00  0.00    -0.056 NA
ATOM     39  C   LIG d   1      11.304   8.290  -3.516  0.00  0.00     0.204 A 
ATOM     40  N   LIG d   1      10.965   6.985  -3.620  0.00  0.00    -0.186 NA
BRANCH  39  41
ATOM     41  C   LIG d   1      10.371   9.445  -3.498  0.00  0.00     0.041 A 
ATOM     42  C   LIG d   1       9.864   9.926  -2.293  0.00  0.00     0.038 A 
ATOM     43  N   LIG d   1       9.040  10.954  -2.275  0.00  0.00    -0.263 NA
ATOM     44  H   LIG d   1      10.153   9.455  -1.365  0.00  0.00     0.084 H 
ATOM     45  C   LIG d   1       8.655  11.556  -3.383  0.00  0.00     0.028 A 
ATOM     46  C   LIG d   1       9.108  11.134  -4.619  0.00  0.00    -0.043 A 
ATOM     47  H   LIG d   1       7.975  12.393  -3.325  0.00  0.00     0.083 H 
ATOM     48  C   LIG d   1       9.981  10.062  -4.690  0.00  0.00    -0.048 A 
ATOM     49  H   LIG d   1       8.787  11.635  -5.520  0.00  0.00     0.063 H 
ATOM     50  H   LIG d   1      10.352   9.711  -5.642  0.00  0.00     0.063 H 
ENDBRANCH  39  41
ENDBRANCH   5  36
TORSDOF 7
ENDMDL
MODEL 7
REMARK VINA RESULT:      -6.2      5.856      7.966
REMARK  7 active torsions:
REMARK  status: ('A' for Active; 'I' for Inactive)
REMARK    1  A    between atoms: C_1  and  N_49 
REMARK    2  A    between atoms: C_3  and  N_19 
REMARK    3  A    between atoms: C_6  and  C_8 
REMARK    4  A    between atoms: C_10  and  C_13 
REMARK       I    between atoms: N_19  and  C_20 
REMARK    5  A    between atoms: C_20  and  C_22 
REMARK    6  A    between atoms: C_22  and  O_23 
REMARK    7  A    between atoms: O_23  and  C_24 
ROOT
ATOM      1  C   LIG d   1       9.808   4.346  -5.983  0.00  0.00    -0.012 C 
ATOM      2  C   LIG d   1       9.460   2.869  -6.293  0.00  0.00     0.069 C 
ATOM      3  H   LIG d   1      10.301   2.213  -6.068  0.00  0.00     0.055 H 
ATOM      4  C   LIG d   1       9.190   2.921  -7.822  0.00  0.00     0.023 C 
ATOM      5  C   LIG d   1      10.212   3.967  -8.316  0.00  0.00     0.061 C 
ATOM      6  H   LIG d   1      11.099   3.465  -8.704  0.00  0.00     0.095 H 
ATOM      7  H   LIG d   1      10.420   4.411  -5.083  0.00  0.00     0.083 H 
ATOM      8  H   LIG d   1       8.899   4.935  -5.869  0.00  0.00     0.083 H 
ATOM      9  H   LIG d   1       8.172   3.252  -8.023  0.00  0.00     0.035 H 
ATOM     10  H   LIG d   1       9.378   1.951  -8.282  0.00  0.00     0.035 H 
ATOM     11  N   LIG d   1      10.587   4.792  -7.156  0.00  0.00     0.243 N 
ATOM     12  H   LIG d   1      11.589   4.673  -6.964  0.00  0.00     0.204 HD
ENDROOT
BRANCH   2  13
ATOM     13  N   LIG d   1       8.261   2.449  -5.563  0.00  0.00    -0.304 N 
ATOM     14  C   LIG d   1       8.379   1.839  -4.366  0.00  0.00     0.251 C 
ATOM     15  O   LIG d   1       9.478   1.637  -3.895  0.00  0.00    -0.272 OA
ATOM     16  H   LIG d   1       7.382   2.611  -5.939  0.00  0.00     0.149 HD
BRANCH  14  17
ATOM     17  C   LIG d   1       7.146   1.408  -3.615  0.00  0.00     0.165 C 
ATOM     18  H   LIG d   1       7.144   1.864  -2.626  0.00  0.00     0.080 H 
ATOM     19  H   LIG d   1       6.258   1.722  -4.163  0.00  0.00     0.080 H 
BRANCH  17  20
ATOM     20  O   LIG d   1       7.143  -0.016  -3.482  0.00  0.00    -0.483 OA
BRANCH  20  21
ATOM     21  C   LIG d   1       5.957  -0.604  -3.178  0.00  0.00     0.121 A 
ATOM     22  C   LIG d   1       4.974   0.117  -2.516  0.00  0.00    -0.020 A 
ATOM     23  C   LIG d   1       3.768  -0.482  -2.207  0.00  0.00    -0.058 A 
ATOM     24  H   LIG d   1       5.151   1.147  -2.243  0.00  0.00     0.065 H 
ATOM     25  C   LIG d   1       3.541  -1.800  -2.557  0.00  0.00    -0.061 A 
ATOM     26  H   LIG d   1       3.003   0.078  -1.691  0.00  0.00     0.062 H 
ATOM     27  C   LIG d   1       4.519  -2.522  -3.216  0.00  0.00    -0.058 A 
ATOM     28  H   LIG d   1       2.597  -2.268  -2.315  0.00  0.00     0.062 H 
ATOM     29  C   LIG d   1       5.724  -1.925  -3.533  0.00  0.00    -0.020 A 
ATOM     30  H   LIG d   1       4.340  -3.551  -3.488  0.00  0.00     0.062 H 
ATOM     31  H   LIG d   1       6.486  -2.487  -4.053  0.00  0.00     0.065 H 
ENDBRANCH  20  21
ENDBRANCH  17  20
ENDBRANCH  14  17
ENDBRANCH   2  13
BRANCH  11  32
ATOM     32  C   LIG d   1      10.314   6.225  -7.438  0.00  0.00    -0.042 C 
ATOM     33  H   LIG d   1      10.878   6.543  -8.315  0.00  0.00     0.078 H 
ATOM     34  H   LIG d   1       9.249   6.359  -7.624  0.00  0.00     0.078 H 
ATOM     35  H   LIG d   1      10.611   6.825  -6.578  0.00  0.00     0.078 H 
ENDBRANCH  11  32
BRANCH   5  36
ATOM     36  C   LIG d   1       9.593   4.818  -9.394  0.00  0.00     0.276 A 
ATOM     37  O   LIG d   1       8.293   5.092  -9.542  0.00  0.00    -0.332 OA
ATOM     38  N   LIG d   1       8.125   5.801 -10.511  0.00  0.00    -0.056 NA
ATOM     39  C   LIG d   1       9.272   6.058 -11.084  0.00  0.00     0.204 A 
ATOM     40  N   LIG d   1      10.228   5.425 -10.366  0.00  0.00    -0.186 NA
BRANCH  39  41
ATOM     41  C   LIG d   1       9.485   6.889 -12.296  0.00  0.00     0.041 A 
ATOM     42  C   LIG d   1       9.308   6.346 -13.566  0.00  0.00     0.038 A 
ATOM     43  N   LIG d   1       9.491   7.082 -14.643  0.00  0.00    -0.263 NA
ATOM     44  H   LIG d   1       9.012   5.312 -13.669  0.00  0.00     0.084 H 
ATOM     45  C   LIG d   1       9.858   8.347 -14.565  0.00  0.00     0.028 A 
ATOM     46  C   LIG d   1      10.060   8.958 -13.341  0.00  0.00    -0.043 A 
ATOM     47  H   LIG d   1      10.001   8.915 -15.472  0.00  0.00     0.083 H 
ATOM     48  C   LIG d   1       9.874   8.227 -12.181  0.00  0.00    -0.048 A 
ATOM     49  H   LIG d   1      10.360   9.994 -13.290  0.00  0.00     0.063 H 
ATOM     50  H   LIG d   1      10.024   8.678 -11.211  0.00  0.00     0.063 H 
ENDBRANCH  39  41
ENDBRANCH   5  36
TORSDOF 7
ENDMDL
MODEL 8
REMARK VINA RESULT:      -6.2      2.277      2.584
REMARK  7 active torsions:
REMARK  status: ('A' for Active; 'I' for Inactive)
REMARK    1  A    between atoms: C_1  and  N_49 
REMARK    2  A    between atoms: C_3  and  N_19 
REMARK    3  A    between atoms: C_6  and  C_8 
REMARK    4  A    between atoms: C_10  and  C_13 
REMARK       I    between atoms: N_19  and  C_20 
REMARK    5  A    between atoms: C_20  and  C_22 
REMARK    6  A    between atoms: C_22  and  O_23 
REMARK    7  A    between atoms: O_23  and  C_24 
ROOT
ATOM      1  C   LIG d   1      11.563   3.733  -3.864  0.00  0.00    -0.012 C 
ATOM      2  C   LIG d   1      10.020   3.866  -3.853  0.00  0.00     0.069 C 
ATOM      3  H   LIG d   1       9.649   4.200  -4.823  0.00  0.00     0.055 H 
ATOM      4  C   LIG d   1       9.804   4.960  -2.771  0.00  0.00     0.023 C 
ATOM      5  C   LIG d   1      11.016   5.892  -2.978  0.00  0.00     0.061 C 
ATOM      6  H   LIG d   1      10.728   6.745  -3.594  0.00  0.00     0.095 H 
ATOM      7  H   LIG d   1      11.903   3.343  -4.824  0.00  0.00     0.083 H 
ATOM      8  H   LIG d   1      11.894   3.086  -3.052  0.00  0.00     0.083 H 
ATOM      9  H   LIG d   1       9.820   4.523  -1.773  0.00  0.00     0.035 H 
ATOM     10  H   LIG d   1       8.871   5.497  -2.943  0.00  0.00     0.035 H 
ATOM     11  N   LIG d   1      12.052   5.114  -3.678  0.00  0.00     0.243 N 
ATOM     12  H   LIG d   1      12.232   5.537  -4.596  0.00  0.00     0.204 HD
ENDROOT
BRANCH   2  13
ATOM     13  N   LIG d   1       9.387   2.605  -3.459  0.00  0.00    -0.304 N 
ATOM     14  C   LIG d   1       8.415   2.070  -4.223  0.00  0.00     0.251 C 
ATOM     15  O   LIG d   1       8.063   2.633  -5.238  0.00  0.00    -0.272 OA
ATOM     16  H   LIG d   1       9.668   2.154  -2.647  0.00  0.00     0.149 HD
BRANCH  14  17
ATOM     17  C   LIG d   1       7.765   0.773  -3.817  0.00  0.00     0.165 C 
ATOM     18  H   LIG d   1       8.235  -0.052  -4.351  0.00  0.00     0.080 H 
ATOM     19  H   LIG d   1       7.884   0.627  -2.744  0.00  0.00     0.080 H 
BRANCH  17  20
ATOM     20  O   LIG d   1       6.372   0.816  -4.139  0.00  0.00    -0.483 OA
BRANCH  20  21
ATOM     21  C   LIG d   1       5.579  -0.130  -3.574  0.00  0.00     0.121 A 
ATOM     22  C   LIG d   1       5.322  -1.315  -4.249  0.00  0.00    -0.020 A 
ATOM     23  C   LIG d   1       4.515  -2.276  -3.673  0.00  0.00    -0.058 A 
ATOM     24  H   LIG d   1       5.753  -1.485  -5.225  0.00  0.00     0.065 H 
ATOM     25  C   LIG d   1       3.963  -2.059  -2.424  0.00  0.00    -0.061 A 
ATOM     26  H   LIG d   1       4.314  -3.198  -4.198  0.00  0.00     0.062 H 
ATOM     27  C   LIG d   1       4.216  -0.879  -1.749  0.00  0.00    -0.058 A 
ATOM     28  H   LIG d   1       3.331  -2.812  -1.974  0.00  0.00     0.062 H 
ATOM     29  C   LIG d   1       5.028   0.083  -2.319  0.00  0.00    -0.020 A 
ATOM     30  H   LIG d   1       3.783  -0.711  -0.774  0.00  0.00     0.062 H 
ATOM     31  H   LIG d   1       5.230   1.002  -1.789  0.00  0.00     0.065 H 
ENDBRANCH  20  21
ENDBRANCH  17  20
ENDBRANCH  14  17
ENDBRANCH   2  13
BRANCH  11  32
ATOM     32  C   LIG d   1      13.311   5.110  -2.889  0.00  0.00    -0.042 C 
ATOM     33  H   LIG d   1      13.321   5.960  -2.206  0.00  0.00     0.078 H 
ATOM     34  H   LIG d   1      13.373   4.184  -2.316  0.00  0.00     0.078 H 
ATOM     35  H   LIG d   1      14.162   5.177  -3.566  0.00  0.00     0.078 H 
ENDBRANCH  11  32
BRANCH   5  36
ATOM     36  C   LIG d   1      11.526   6.374  -1.645  0.00  0.00     0.276 A 
ATOM     37  O   LIG d   1      11.748   5.622  -0.561  0.00  0.00    -0.332 OA
ATOM     38  N   LIG d   1      12.152   6.315   0.349  0.00  0.00    -0.056 NA
ATOM     39  C   LIG d   1      12.235   7.562  -0.038  0.00  0.00     0.204 A 
ATOM     40  N   LIG d   1      11.831   7.608  -1.328  0.00  0.00    -0.186 NA
BRANCH  39  41
ATOM     41  C   LIG d   1      12.686   8.712   0.786  0.00  0.00     0.041 A 
ATOM     42  C   LIG d   1      13.926   9.303   0.556  0.00  0.00     0.038 A 
ATOM     43  N   LIG d   1      14.327  10.327   1.282  0.00  0.00    -0.263 NA
ATOM     44  H   LIG d   1      14.564   8.922  -0.229  0.00  0.00     0.084 H 
ATOM     45  C   LIG d   1      13.585  10.821   2.254  0.00  0.00     0.028 A 
ATOM     46  C   LIG d   1      12.345  10.286   2.549  0.00  0.00    -0.043 A 
ATOM     47  H   LIG d   1      13.952  11.659   2.829  0.00  0.00     0.083 H 
ATOM     48  C   LIG d   1      11.878   9.213   1.810  0.00  0.00    -0.048 A 
ATOM     49  H   LIG d   1      11.746  10.700   3.347  0.00  0.00     0.063 H 
ATOM     50  H   LIG d   1      10.912   8.775   2.017  0.00  0.00     0.063 H 
ENDBRANCH  39  41
ENDBRANCH   5  36
TORSDOF 7
ENDMDL
MODEL 9
REMARK VINA RESULT:      -6.1      3.435      4.607
REMARK  7 active torsions:
REMARK  status: ('A' for Active; 'I' for Inactive)
REMARK    1  A    between atoms: C_1  and  N_49 
REMARK    2  A    between atoms: C_3  and  N_19 
REMARK    3  A    between atoms: C_6  and  C_8 
REMARK    4  A    between atoms: C_10  and  C_13 
REMARK       I    between atoms: N_19  and  C_20 
REMARK    5  A    between atoms: C_20  and  C_22 
REMARK    6  A    between atoms: C_22  and  O_23 
REMARK    7  A    between atoms: O_23  and  C_24 
ROOT
ATOM      1  C   LIG d   1      12.128  -0.271  -4.485  0.00  0.00    -0.012 C 
ATOM      2  C   LIG d   1      10.825   0.026  -5.266  0.00  0.00     0.069 C 
ATOM      3  H   LIG d   1      10.894  -0.331  -6.294  0.00  0.00     0.055 H 
ATOM      4  C   LIG d   1      10.775   1.578  -5.222  0.00  0.00     0.023 C 
ATOM      5  C   LIG d   1      12.264   1.973  -5.318  0.00  0.00     0.061 C 
ATOM      6  H   LIG d   1      12.516   2.222  -6.349  0.00  0.00     0.095 H 
ATOM      7  H   LIG d   1      12.533  -1.241  -4.776  0.00  0.00     0.083 H 
ATOM      8  H   LIG d   1      11.941  -0.243  -3.411  0.00  0.00     0.083 H 
ATOM      9  H   LIG d   1      10.346   1.923  -4.282  0.00  0.00     0.035 H 
ATOM     10  H   LIG d   1      10.217   1.974  -6.070  0.00  0.00     0.035 H 
ATOM     11  N   LIG d   1      13.054   0.805  -4.892  0.00  0.00     0.243 N 
ATOM     12  H   LIG d   1      13.629   0.479  -5.678  0.00  0.00     0.204 HD
ENDROOT
BRANCH   2  13
ATOM     13  N   LIG d   1       9.663  -0.556  -4.590  0.00  0.00    -0.304 N 
ATOM     14  C   LIG d   1       8.554  -0.858  -5.293  0.00  0.00     0.251 C 
ATOM     15  O   LIG d   1       8.517  -0.647  -6.488  0.00  0.00    -0.272 OA
ATOM     16  H   LIG d   1       9.691  -0.724  -3.635  0.00  0.00     0.149 HD
BRANCH  14  17
ATOM     17  C   LIG d   1       7.359  -1.457  -4.597  0.00  0.00     0.165 C 
ATOM     18  H   LIG d   1       6.473  -1.325  -5.217  0.00  0.00     0.080 H 
ATOM     19  H   LIG d   1       7.531  -2.520  -4.430  0.00  0.00     0.080 H 
BRANCH  17  20
ATOM     20  O   LIG d   1       7.163  -0.804  -3.340  0.00  0.00    -0.483 OA
BRANCH  20  21
ATOM     21  C   LIG d   1       5.897  -0.419  -3.037  0.00  0.00     0.121 A 
ATOM     22  C   LIG d   1       5.598   0.927  -2.880  0.00  0.00    -0.020 A 
ATOM     23  C   LIG d   1       4.310   1.317  -2.571  0.00  0.00    -0.058 A 
ATOM     24  H   LIG d   1       6.374   1.670  -2.999  0.00  0.00     0.065 H 
ATOM     25  C   LIG d   1       3.317   0.367  -2.418  0.00  0.00    -0.061 A 
ATOM     26  H   LIG d   1       4.077   2.364  -2.448  0.00  0.00     0.062 H 
ATOM     27  C   LIG d   1       3.611  -0.975  -2.573  0.00  0.00    -0.058 A 
ATOM     28  H   LIG d   1       2.309   0.673  -2.176  0.00  0.00     0.062 H 
ATOM     29  C   LIG d   1       4.897  -1.369  -2.888  0.00  0.00    -0.020 A 
ATOM     30  H   LIG d   1       2.834  -1.715  -2.453  0.00  0.00     0.062 H 
ATOM     31  H   LIG d   1       5.126  -2.417  -3.015  0.00  0.00     0.065 H 
ENDBRANCH  20  21
ENDBRANCH  17  20
ENDBRANCH  14  17
ENDBRANCH   2  13
BRANCH  11  32
ATOM     32  C   LIG d   1      13.942   1.173  -3.759  0.00  0.00    -0.042 C 
ATOM     33  H   LIG d   1      14.301   0.271  -3.263  0.00  0.00     0.078 H 
ATOM     34  H   LIG d   1      14.792   1.740  -4.139  0.00  0.00     0.078 H 
ATOM     35  H   LIG d   1      13.386   1.782  -3.047  0.00  0.00     0.078 H 
ENDBRANCH  11  32
BRANCH   5  36
ATOM     36  C   LIG d   1      12.541   3.154  -4.424  0.00  0.00     0.276 A 
ATOM     37  O   LIG d   1      13.489   4.080  -4.602  0.00  0.00    -0.332 OA
ATOM     38  N   LIG d   1      13.450   4.892  -3.703  0.00  0.00    -0.056 NA
ATOM     39  C   LIG d   1      12.494   4.588  -2.863  0.00  0.00     0.204 A 
ATOM     40  N   LIG d   1      11.902   3.463  -3.324  0.00  0.00    -0.186 NA
BRANCH  39  41
ATOM     41  C   LIG d   1      12.130   5.337  -1.634  0.00  0.00     0.041 A 
ATOM     42  C   LIG d   1      13.120   5.866  -0.809  0.00  0.00     0.038 A 
ATOM     43  N   LIG d   1      12.799   6.535   0.280  0.00  0.00    -0.263 NA
ATOM     44  H   LIG d   1      14.160   5.730  -1.066  0.00  0.00     0.084 H 
ATOM     45  C   LIG d   1      11.543   6.721   0.636  0.00  0.00     0.028 A 
ATOM     46  C   LIG d   1      10.503   6.222  -0.127  0.00  0.00    -0.043 A 
ATOM     47  H   LIG d   1      11.322   7.272   1.538  0.00  0.00     0.083 H 
ATOM     48  C   LIG d   1      10.789   5.517  -1.283  0.00  0.00    -0.048 A 
ATOM     49  H   LIG d   1       9.478   6.380   0.175  0.00  0.00     0.063 H 
ATOM     50  H   LIG d   1       9.998   5.116  -1.899  0.00  0.00     0.063 H 
ENDBRANCH  39  41
ENDBRANCH   5  36
TORSDOF 7
ENDMDL
