MODEL 1
REMARK VINA RESULT:      -7.4      0.000      0.000
REMARK  9 active torsions:
REMARK  status: ('A' for Active; 'I' for Inactive)
REMARK    1  A    between atoms: C_1  and  O_2 
REMARK    2  A    between atoms: O_2  and  C_3 
REMARK    3  A    between atoms: C_3  and  C_5 
REMARK    4  A    between atoms: C_5  and  C_7 
REMARK    5  A    between atoms: C_5  and  N_14 
REMARK    6  A    between atoms: C_7  and  C_8 
REMARK       I    between atoms: N_14  and  C_15 
REMARK    7  A    between atoms: C_15  and  C_17 
REMARK    8  A    between atoms: C_17  and  C_18 
REMARK    9  A    between atoms: C_18  and  N_19 
ROOT
ATOM      1  N   LIG d   1       4.775   0.174  -6.144  0.00  0.00    -0.302 N 
ATOM      2  C   LIG d   1       5.666  -0.835  -6.191  0.00  0.00     0.215 C 
ATOM      3  O   LIG d   1       5.285  -1.973  -6.368  0.00  0.00    -0.276 OA
ATOM      4  H   LIG d   1       5.121   1.206  -5.983  0.00  0.00     0.149 HD
ENDROOT
BRANCH   1   5
ATOM      5  C   LIG d   1       3.345  -0.103  -6.306  0.00  0.00     0.124 C 
ATOM      6  H   LIG d   1       3.225  -1.193  -6.384  0.00  0.00     0.062 H 
BRANCH   5   7
ATOM      7  C   LIG d   1       2.846   0.556  -7.565  0.00  0.00     0.328 C 
ATOM      8  O   LIG d   1       2.272  -0.098  -8.404  0.00  0.00    -0.249 OA
BRANCH   7   9
ATOM      9  O   LIG d   1       3.038   1.871  -7.757  0.00  0.00    -0.467 OA
BRANCH   9  10
ATOM     10  C   LIG d   1       3.526   2.284  -9.061  0.00  0.00     0.082 C 
ATOM     11  H   LIG d   1       2.673   2.493  -9.723  0.00  0.00     0.066 H 
ATOM     12  H   LIG d   1       4.139   1.478  -9.495  0.00  0.00     0.066 H 
ATOM     13  H   LIG d   1       4.138   3.191  -8.952  0.00  0.00     0.066 H 
ENDBRANCH   9  10
ENDBRANCH   7   9
ENDBRANCH   5   7
BRANCH   5  14
ATOM     14  C   LIG d   1       2.579   0.451  -5.103  0.00  0.00     0.001 C 
ATOM     15  H   LIG d   1       2.559   1.549  -5.154  0.00  0.00     0.034 H 
ATOM     16  H   LIG d   1       1.549   0.063  -5.115  0.00  0.00     0.034 H 
BRANCH  14  17
ATOM     17  C   LIG d   1       3.263   0.020  -3.831  0.00  0.00    -0.045 A 
ATOM     18  C   LIG d   1       3.884   0.959  -3.028  0.00  0.00    -0.059 A 
ATOM     19  C   LIG d   1       4.511   0.564  -1.862  0.00  0.00    -0.061 A 
ATOM     20  H   LIG d   1       3.878   2.001  -3.313  0.00  0.00     0.062 H 
ATOM     21  C   LIG d   1       4.519  -0.769  -1.498  0.00  0.00    -0.062 A 
ATOM     22  H   LIG d   1       4.997   1.298  -1.235  0.00  0.00     0.062 H 
ATOM     23  C   LIG d   1       3.898  -1.707  -2.300  0.00  0.00    -0.061 A 
ATOM     24  H   LIG d   1       5.010  -1.077  -0.585  0.00  0.00     0.062 H 
ATOM     25  C   LIG d   1       3.275  -1.314  -3.469  0.00  0.00    -0.059 A 
ATOM     26  H   LIG d   1       3.904  -2.749  -2.015  0.00  0.00     0.062 H 
ATOM     27  H   LIG d   1       2.793  -2.048  -4.098  0.00  0.00     0.062 H 
ENDBRANCH  14  17
ENDBRANCH   5  14
ENDBRANCH   1   5
BRANCH   2  28
ATOM     28  C   LIG d   1       7.137  -0.551  -6.023  0.00  0.00     0.042 C 
ATOM     29  H   LIG d   1       7.372  -0.460  -4.953  0.00  0.00     0.038 H 
ATOM     30  H   LIG d   1       7.721  -1.377  -6.457  0.00  0.00     0.038 H 
BRANCH  28  31
ATOM     31  C   LIG d   1       7.490   0.755  -6.736  0.00  0.00     0.036 C 
ATOM     32  H   LIG d   1       8.185   0.544  -7.564  0.00  0.00     0.050 H 
ATOM     33  H   LIG d   1       6.573   1.213  -7.136  0.00  0.00     0.050 H 
BRANCH  31  34
ATOM     34  N   LIG d   1       8.123   1.674  -5.788  0.00  0.00    -0.298 N 
ATOM     35  C   LIG d   1       8.855   2.715  -6.249  0.00  0.00     0.262 A 
ATOM     36  C   LIG d   1       9.466   3.606  -5.254  0.00  0.00     0.065 A 
ATOM     37  O   LIG d   1       8.998   2.906  -7.443  0.00  0.00    -0.267 OA
ATOM     38  C   LIG d   1       9.253   3.319  -3.887  0.00  0.00     0.078 A 
ATOM     39  C   LIG d   1      10.238   4.706  -5.624  0.00  0.00    -0.047 A 
ATOM     40  N   LIG d   1       8.499   2.243  -3.551  0.00  0.00    -0.237 NA
ATOM     41  C   LIG d   1       9.821   4.148  -2.917  0.00  0.00    -0.035 A 
ATOM     42  C   LIG d   1       7.966   1.476  -4.453  0.00  0.00     0.099 A 
ATOM     43  H   LIG d   1       7.371   0.637  -4.125  0.00  0.00     0.103 H 
ATOM     44  C   LIG d   1      10.579   5.230  -3.304  0.00  0.00    -0.060 A 
ATOM     45  H   LIG d   1       9.666   3.941  -1.869  0.00  0.00     0.064 H 
ATOM     46  C   LIG d   1      10.788   5.508  -4.648  0.00  0.00    -0.061 A 
ATOM     47  H   LIG d   1      11.017   5.870  -2.552  0.00  0.00     0.062 H 
ATOM     48  H   LIG d   1      11.386   6.362  -4.931  0.00  0.00     0.062 H 
ATOM     49  H   LIG d   1      10.403   4.928  -6.668  0.00  0.00     0.063 H 
ENDBRANCH  31  34
ENDBRANCH  28  31
ENDBRANCH   2  28
TORSDOF 9
ENDMDL
MODEL 2
REMARK VINA RESULT:      -7.4      1.107      1.916
REMARK  9 active torsions:
REMARK  status: ('A' for Active; 'I' for Inactive)
REMARK    1  A    between atoms: C_1  and  O_2 
REMARK    2  A    between atoms: O_2  and  C_3 
REMARK    3  A    between atoms: C_3  and  C_5 
REMARK    4  A    between atoms: C_5  and  C_7 
REMARK    5  A    between atoms: C_5  and  N_14 
REMARK    6  A    between atoms: C_7  and  C_8 
REMARK       I    between atoms: N_14  and  C_15 
REMARK    7  A    between atoms: C_15  and  C_17 
REMARK    8  A    between atoms: C_17  and  C_18 
REMARK    9  A    between atoms: C_18  and  N_19 
ROOT
ATOM      1  N   LIG d   1       4.752   0.118  -6.211  0.00  0.00    -0.302 N 
ATOM      2  C   LIG d   1       5.598  -0.917  -6.387  0.00  0.00     0.215 C 
ATOM      3  O   LIG d   1       5.161  -2.020  -6.639  0.00  0.00    -0.276 OA
ATOM      4  H   LIG d   1       5.148   1.118  -5.983  0.00  0.00     0.149 HD
ENDROOT
BRANCH   1   5
ATOM      5  C   LIG d   1       3.306  -0.091  -6.324  0.00  0.00     0.124 C 
ATOM      6  H   LIG d   1       3.130  -1.175  -6.375  0.00  0.00     0.062 H 
BRANCH   5   7
ATOM      7  C   LIG d   1       2.801   0.567  -7.582  0.00  0.00     0.328 C 
ATOM      8  O   LIG d   1       2.239  -0.092  -8.425  0.00  0.00    -0.249 OA
BRANCH   7   9
ATOM      9  O   LIG d   1       2.973   1.885  -7.767  0.00  0.00    -0.467 OA
BRANCH   9  10
ATOM     10  C   LIG d   1       3.577   2.303  -9.019  0.00  0.00     0.082 C 
ATOM     11  H   LIG d   1       3.263   3.331  -9.254  0.00  0.00     0.066 H 
ATOM     12  H   LIG d   1       3.253   1.627  -9.826  0.00  0.00     0.066 H 
ATOM     13  H   LIG d   1       4.672   2.266  -8.928  0.00  0.00     0.066 H 
ENDBRANCH   9  10
ENDBRANCH   7   9
ENDBRANCH   5   7
BRANCH   5  14
ATOM     14  C   LIG d   1       2.607   0.525  -5.111  0.00  0.00     0.001 C 
ATOM     15  H   LIG d   1       2.672   1.621  -5.167  0.00  0.00     0.034 H 
ATOM     16  H   LIG d   1       1.549   0.219  -5.103  0.00  0.00     0.034 H 
BRANCH  14  17
ATOM     17  C   LIG d   1       3.276   0.046  -3.848  0.00  0.00    -0.045 A 
ATOM     18  C   LIG d   1       3.267  -1.298  -3.528  0.00  0.00    -0.059 A 
ATOM     19  C   LIG d   1       3.881  -1.737  -2.370  0.00  0.00    -0.061 A 
ATOM     20  H   LIG d   1       2.781  -2.006  -4.183  0.00  0.00     0.062 H 
ATOM     21  C   LIG d   1       4.502  -0.831  -1.531  0.00  0.00    -0.062 A 
ATOM     22  H   LIG d   1       3.873  -2.788  -2.119  0.00  0.00     0.062 H 
ATOM     23  C   LIG d   1       4.511   0.513  -1.851  0.00  0.00    -0.061 A 
ATOM     24  H   LIG d   1       4.982  -1.175  -0.626  0.00  0.00     0.062 H 
ATOM     25  C   LIG d   1       3.893   0.953  -3.007  0.00  0.00    -0.059 A 
ATOM     26  H   LIG d   1       4.997   1.221  -1.196  0.00  0.00     0.062 H 
ATOM     27  H   LIG d   1       3.897   2.004  -3.255  0.00  0.00     0.062 H 
ENDBRANCH  14  17
ENDBRANCH   5  14
ENDBRANCH   1   5
BRANCH   2  28
ATOM     28  C   LIG d   1       7.085  -0.704  -6.270  0.00  0.00     0.042 C 
ATOM     29  H   LIG d   1       7.584  -1.674  -6.132  0.00  0.00     0.038 H 
ATOM     30  H   LIG d   1       7.460  -0.227  -7.189  0.00  0.00     0.038 H 
BRANCH  28  31
ATOM     31  C   LIG d   1       7.380   0.197  -5.070  0.00  0.00     0.036 C 
ATOM     32  H   LIG d   1       6.434   0.487  -4.587  0.00  0.00     0.050 H 
ATOM     33  H   LIG d   1       8.007  -0.347  -4.349  0.00  0.00     0.050 H 
BRANCH  31  34
ATOM     34  N   LIG d   1       8.085   1.399  -5.523  0.00  0.00    -0.298 N 
ATOM     35  C   LIG d   1       8.417   2.359  -4.628  0.00  0.00     0.262 A 
ATOM     36  C   LIG d   1       9.124   3.542  -5.137  0.00  0.00     0.065 A 
ATOM     37  O   LIG d   1       8.142   2.244  -3.448  0.00  0.00    -0.267 OA
ATOM     38  C   LIG d   1       9.409   3.601  -6.519  0.00  0.00     0.078 A 
ATOM     39  C   LIG d   1       9.511   4.587  -4.299  0.00  0.00    -0.047 A 
ATOM     40  N   LIG d   1       9.023   2.573  -7.315  0.00  0.00    -0.237 NA
ATOM     41  C   LIG d   1      10.081   4.714  -7.032  0.00  0.00    -0.035 A 
ATOM     42  C   LIG d   1       8.404   1.537  -6.836  0.00  0.00     0.099 A 
ATOM     43  H   LIG d   1       8.126   0.747  -7.517  0.00  0.00     0.103 H 
ATOM     44  C   LIG d   1      10.455   5.734  -6.188  0.00  0.00    -0.060 A 
ATOM     45  H   LIG d   1      10.306   4.772  -8.087  0.00  0.00     0.064 H 
ATOM     46  C   LIG d   1      10.172   5.673  -4.829  0.00  0.00    -0.061 A 
ATOM     47  H   LIG d   1      10.974   6.593  -6.586  0.00  0.00     0.062 H 
ATOM     48  H   LIG d   1      10.474   6.484  -4.183  0.00  0.00     0.062 H 
ATOM     49  H   LIG d   1       9.295   4.545  -3.241  0.00  0.00     0.063 H 
ENDBRANCH  31  34
ENDBRANCH  28  31
ENDBRANCH   2  28
TORSDOF 9
ENDMDL
MODEL 3
REMARK VINA RESULT:      -7.2      3.620      6.354
REMARK  9 active torsions:
REMARK  status: ('A' for Active; 'I' for Inactive)
REMARK    1  A    between atoms: C_1  and  O_2 
REMARK    2  A    between atoms: O_2  and  C_3 
REMARK    3  A    between atoms: C_3  and  C_5 
REMARK    4  A    between atoms: C_5  and  C_7 
REMARK    5  A    between atoms: C_5  and  N_14 
REMARK    6  A    between atoms: C_7  and  C_8 
REMARK       I    between atoms: N_14  and  C_15 
REMARK    7  A    between atoms: C_15  and  C_17 
REMARK    8  A    between atoms: C_17  and  C_18 
REMARK    9  A    between atoms: C_18  and  N_19 
ROOT
ATOM      1  N   LIG d   1       3.544  -1.669  -7.941  0.00  0.00    -0.302 N 
ATOM      2  C   LIG d   1       4.689  -2.316  -8.234  0.00  0.00     0.215 C 
ATOM      3  O   LIG d   1       5.485  -1.821  -9.005  0.00  0.00    -0.276 OA
ATOM      4  H   LIG d   1       2.822  -2.117  -7.242  0.00  0.00     0.149 HD
ENDROOT
BRANCH   1   5
ATOM      5  C   LIG d   1       3.260  -0.369  -8.554  0.00  0.00     0.124 C 
ATOM      6  H   LIG d   1       4.085  -0.139  -9.243  0.00  0.00     0.062 H 
BRANCH   5   7
ATOM      7  C   LIG d   1       3.184   0.686  -7.480  0.00  0.00     0.328 C 
ATOM      8  O   LIG d   1       2.885   1.821  -7.768  0.00  0.00    -0.249 OA
BRANCH   7   9
ATOM      9  O   LIG d   1       3.449   0.366  -6.204  0.00  0.00    -0.467 OA
BRANCH   9  10
ATOM     10  C   LIG d   1       2.389   0.580  -5.236  0.00  0.00     0.082 C 
ATOM     11  H   LIG d   1       2.685   1.376  -4.536  0.00  0.00     0.066 H 
ATOM     12  H   LIG d   1       2.210  -0.352  -4.677  0.00  0.00     0.066 H 
ATOM     13  H   LIG d   1       1.468   0.875  -5.760  0.00  0.00     0.066 H 
ENDBRANCH   9  10
ENDBRANCH   7   9
ENDBRANCH   5   7
BRANCH   5  14
ATOM     14  C   LIG d   1       1.924  -0.436  -9.296  0.00  0.00     0.001 C 
ATOM     15  H   LIG d   1       1.269  -1.173  -8.808  0.00  0.00     0.034 H 
ATOM     16  H   LIG d   1       1.443   0.554  -9.276  0.00  0.00     0.034 H 
BRANCH  14  17
ATOM     17  C   LIG d   1       2.164  -0.848 -10.725  0.00  0.00    -0.045 A 
ATOM     18  C   LIG d   1       3.318  -0.451 -11.375  0.00  0.00    -0.059 A 
ATOM     19  C   LIG d   1       3.538  -0.829 -12.686  0.00  0.00    -0.061 A 
ATOM     20  H   LIG d   1       4.048   0.153 -10.856  0.00  0.00     0.062 H 
ATOM     21  C   LIG d   1       2.603  -1.601 -13.350  0.00  0.00    -0.062 A 
ATOM     22  H   LIG d   1       4.440  -0.518 -13.193  0.00  0.00     0.062 H 
ATOM     23  C   LIG d   1       1.449  -1.998 -12.700  0.00  0.00    -0.061 A 
ATOM     24  H   LIG d   1       2.776  -1.895 -14.375  0.00  0.00     0.062 H 
ATOM     25  C   LIG d   1       1.227  -1.616 -11.391  0.00  0.00    -0.059 A 
ATOM     26  H   LIG d   1       0.719  -2.601 -13.219  0.00  0.00     0.062 H 
ATOM     27  H   LIG d   1       0.323  -1.923 -10.885  0.00  0.00     0.062 H 
ENDBRANCH  14  17
ENDBRANCH   5  14
ENDBRANCH   1   5
BRANCH   2  28
ATOM     28  C   LIG d   1       4.982  -3.654  -7.605  0.00  0.00     0.042 C 
ATOM     29  H   LIG d   1       4.082  -4.021  -7.090  0.00  0.00     0.038 H 
ATOM     30  H   LIG d   1       5.274  -4.370  -8.388  0.00  0.00     0.038 H 
BRANCH  28  31
ATOM     31  C   LIG d   1       6.122  -3.506  -6.597  0.00  0.00     0.036 C 
ATOM     32  H   LIG d   1       6.480  -4.503  -6.299  0.00  0.00     0.050 H 
ATOM     33  H   LIG d   1       6.947  -2.943  -7.057  0.00  0.00     0.050 H 
BRANCH  31  34
ATOM     34  N   LIG d   1       5.639  -2.788  -5.415  0.00  0.00    -0.298 N 
ATOM     35  C   LIG d   1       6.094  -1.539  -5.156  0.00  0.00     0.262 A 
ATOM     36  C   LIG d   1       5.575  -0.865  -3.958  0.00  0.00     0.065 A 
ATOM     37  O   LIG d   1       6.900  -0.996  -5.889  0.00  0.00    -0.267 OA
ATOM     38  C   LIG d   1       4.641  -1.560  -3.158  0.00  0.00     0.078 A 
ATOM     39  C   LIG d   1       5.979   0.421  -3.602  0.00  0.00    -0.047 A 
ATOM     40  N   LIG d   1       4.263  -2.810  -3.524  0.00  0.00    -0.237 NA
ATOM     41  C   LIG d   1       4.130  -0.945  -2.013  0.00  0.00    -0.035 A 
ATOM     42  C   LIG d   1       4.734  -3.378  -4.591  0.00  0.00     0.099 A 
ATOM     43  H   LIG d   1       4.393  -4.373  -4.835  0.00  0.00     0.103 H 
ATOM     44  C   LIG d   1       4.541   0.326  -1.679  0.00  0.00    -0.060 A 
ATOM     45  H   LIG d   1       3.415  -1.464  -1.392  0.00  0.00     0.064 H 
ATOM     46  C   LIG d   1       5.460   1.005  -2.468  0.00  0.00    -0.061 A 
ATOM     47  H   LIG d   1       4.145   0.799  -0.794  0.00  0.00     0.062 H 
ATOM     48  H   LIG d   1       5.771   2.002  -2.189  0.00  0.00     0.062 H 
ATOM     49  H   LIG d   1       6.693   0.955  -4.212  0.00  0.00     0.063 H 
ENDBRANCH  31  34
ENDBRANCH  28  31
ENDBRANCH   2  28
TORSDOF 9
ENDMDL
MODEL 4
REMARK VINA RESULT:      -6.8      3.764      7.337
REMARK  9 active torsions:
REMARK  status: ('A' for Active; 'I' for Inactive)
REMARK    1  A    between atoms: C_1  and  O_2 
REMARK    2  A    between atoms: O_2  and  C_3 
REMARK    3  A    between atoms: C_3  and  C_5 
REMARK    4  A    between atoms: C_5  and  C_7 
REMARK    5  A    between atoms: C_5  and  N_14 
REMARK    6  A    between atoms: C_7  and  C_8 
REMARK       I    between atoms: N_14  and  C_15 
REMARK    7  A    between atoms: C_15  and  C_17 
REMARK    8  A    between atoms: C_17  and  C_18 
REMARK    9  A    between atoms: C_18  and  N_19 
ROOT
ATOM      1  N   LIG d   1       3.956  -1.645  -6.078  0.00  0.00    -0.302 N 
ATOM      2  C   LIG d   1       4.032  -0.435  -6.665  0.00  0.00     0.215 C 
ATOM      3  O   LIG d   1       5.114   0.079  -6.859  0.00  0.00    -0.276 OA
ATOM      4  H   LIG d   1       2.975  -2.111  -5.902  0.00  0.00     0.149 HD
ENDROOT
BRANCH   1   5
ATOM      5  C   LIG d   1       5.181  -2.341  -5.673  0.00  0.00     0.124 C 
ATOM      6  H   LIG d   1       6.031  -1.693  -5.931  0.00  0.00     0.062 H 
BRANCH   5   7
ATOM      7  C   LIG d   1       5.288  -3.644  -6.422  0.00  0.00     0.328 C 
ATOM      8  O   LIG d   1       6.109  -3.771  -7.300  0.00  0.00    -0.249 OA
BRANCH   7   9
ATOM      9  O   LIG d   1       4.473  -4.665  -6.114  0.00  0.00    -0.467 OA
BRANCH   9  10
ATOM     10  C   LIG d   1       3.867  -5.384  -7.220  0.00  0.00     0.082 C 
ATOM     11  H   LIG d   1       4.336  -6.375  -7.315  0.00  0.00     0.066 H 
ATOM     12  H   LIG d   1       4.017  -4.816  -8.152  0.00  0.00     0.066 H 
ATOM     13  H   LIG d   1       2.790  -5.504  -7.033  0.00  0.00     0.066 H 
ENDBRANCH   9  10
ENDBRANCH   7   9
ENDBRANCH   5   7
BRANCH   5  14
ATOM     14  C   LIG d   1       5.135  -2.619  -4.170  0.00  0.00     0.001 C 
ATOM     15  H   LIG d   1       4.273  -3.263  -3.941  0.00  0.00     0.034 H 
ATOM     16  H   LIG d   1       6.063  -3.125  -3.862  0.00  0.00     0.034 H 
BRANCH  14  17
ATOM     17  C   LIG d   1       5.002  -1.318  -3.422  0.00  0.00    -0.045 A 
ATOM     18  C   LIG d   1       6.009  -0.374  -3.491  0.00  0.00    -0.059 A 
ATOM     19  C   LIG d   1       5.887   0.820  -2.805  0.00  0.00    -0.061 A 
ATOM     20  H   LIG d   1       6.892  -0.569  -4.082  0.00  0.00     0.062 H 
ATOM     21  C   LIG d   1       4.758   1.069  -2.047  0.00  0.00    -0.062 A 
ATOM     22  H   LIG d   1       6.675   1.556  -2.858  0.00  0.00     0.062 H 
ATOM     23  C   LIG d   1       3.750   0.125  -1.978  0.00  0.00    -0.061 A 
ATOM     24  H   LIG d   1       4.663   2.002  -1.511  0.00  0.00     0.062 H 
ATOM     25  C   LIG d   1       3.875  -1.070  -2.661  0.00  0.00    -0.059 A 
ATOM     26  H   LIG d   1       2.868   0.321  -1.387  0.00  0.00     0.062 H 
ATOM     27  H   LIG d   1       3.089  -1.809  -2.603  0.00  0.00     0.062 H 
ENDBRANCH  14  17
ENDBRANCH   5  14
ENDBRANCH   1   5
BRANCH   2  28
ATOM     28  C   LIG d   1       2.773   0.282  -7.081  0.00  0.00     0.042 C 
ATOM     29  H   LIG d   1       1.999  -0.456  -7.337  0.00  0.00     0.038 H 
ATOM     30  H   LIG d   1       2.418   0.912  -6.251  0.00  0.00     0.038 H 
BRANCH  28  31
ATOM     31  C   LIG d   1       3.063   1.160  -8.299  0.00  0.00     0.036 C 
ATOM     32  H   LIG d   1       2.398   2.037  -8.286  0.00  0.00     0.050 H 
ATOM     33  H   LIG d   1       4.111   1.494  -8.269  0.00  0.00     0.050 H 
BRANCH  31  34
ATOM     34  N   LIG d   1       2.831   0.389  -9.523  0.00  0.00    -0.298 N 
ATOM     35  C   LIG d   1       3.717   0.467 -10.543  0.00  0.00     0.262 A 
ATOM     36  C   LIG d   1       3.436  -0.328 -11.747  0.00  0.00     0.065 A 
ATOM     37  O   LIG d   1       4.710   1.167 -10.465  0.00  0.00    -0.267 OA
ATOM     38  C   LIG d   1       2.264  -1.117 -11.761  0.00  0.00     0.078 A 
ATOM     39  C   LIG d   1       4.285  -0.319 -12.852  0.00  0.00    -0.047 A 
ATOM     40  N   LIG d   1       1.453  -1.110 -10.674  0.00  0.00    -0.237 NA
ATOM     41  C   LIG d   1       1.969  -1.884 -12.891  0.00  0.00    -0.035 A 
ATOM     42  C   LIG d   1       1.731  -0.402  -9.622  0.00  0.00     0.099 A 
ATOM     43  H   LIG d   1       1.050  -0.440  -8.785  0.00  0.00     0.103 H 
ATOM     44  C   LIG d   1       2.821  -1.861 -13.972  0.00  0.00    -0.060 A 
ATOM     45  H   LIG d   1       1.077  -2.492 -12.915  0.00  0.00     0.064 H 
ATOM     46  C   LIG d   1       3.971  -1.084 -13.954  0.00  0.00    -0.061 A 
ATOM     47  H   LIG d   1       2.591  -2.455 -14.844  0.00  0.00     0.062 H 
ATOM     48  H   LIG d   1       4.627  -1.079 -14.813  0.00  0.00     0.062 H 
ATOM     49  H   LIG d   1       5.181   0.283 -12.844  0.00  0.00     0.063 H 
ENDBRANCH  31  34
ENDBRANCH  28  31
ENDBRANCH   2  28
TORSDOF 9
ENDMDL
MODEL 5
REMARK VINA RESULT:      -6.6      3.192      8.076
REMARK  9 active torsions:
REMARK  status: ('A' for Active; 'I' for Inactive)
REMARK    1  A    between atoms: C_1  and  O_2 
REMARK    2  A    between atoms: O_2  and  C_3 
REMARK    3  A    between atoms: C_3  and  C_5 
REMARK    4  A    between atoms: C_5  and  C_7 
REMARK    5  A    between atoms: C_5  and  N_14 
REMARK    6  A    between atoms: C_7  and  C_8 
REMARK       I    between atoms: N_14  and  C_15 
REMARK    7  A    between atoms: C_15  and  C_17 
REMARK    8  A    between atoms: C_17  and  C_18 
REMARK    9  A    between atoms: C_18  and  N_19 
ROOT
ATOM      1  N   LIG d   1      10.255   3.221  -3.976  0.00  0.00    -0.302 N 
ATOM      2  C   LIG d   1      10.915   2.373  -4.789  0.00  0.00     0.215 C 
ATOM      3  O   LIG d   1      11.831   2.779  -5.473  0.00  0.00    -0.276 OA
ATOM      4  H   LIG d   1       9.425   2.854  -3.355  0.00  0.00     0.149 HD
ENDROOT
BRANCH   1   5
ATOM      5  C   LIG d   1      10.643   4.633  -3.919  0.00  0.00     0.124 C 
ATOM      6  H   LIG d   1      11.374   4.809  -4.722  0.00  0.00     0.062 H 
BRANCH   5   7
ATOM      7  C   LIG d   1      11.274   4.927  -2.583  0.00  0.00     0.328 C 
ATOM      8  O   LIG d   1      12.476   4.999  -2.485  0.00  0.00    -0.249 OA
BRANCH   7   9
ATOM      9  O   LIG d   1      10.501   5.111  -1.501  0.00  0.00    -0.467 OA
BRANCH   9  10
ATOM     10  C   LIG d   1      10.679   6.349  -0.764  0.00  0.00     0.082 C 
ATOM     11  H   LIG d   1      10.656   6.140   0.316  0.00  0.00     0.066 H 
ATOM     12  H   LIG d   1       9.867   7.047  -1.020  0.00  0.00     0.066 H 
ATOM     13  H   LIG d   1      11.647   6.798  -1.030  0.00  0.00     0.066 H 
ENDBRANCH   9  10
ENDBRANCH   7   9
ENDBRANCH   5   7
BRANCH   5  14
ATOM     14  C   LIG d   1       9.403   5.510  -4.102  0.00  0.00     0.001 C 
ATOM     15  H   LIG d   1       8.503   4.878  -4.104  0.00  0.00     0.034 H 
ATOM     16  H   LIG d   1       9.341   6.234  -3.275  0.00  0.00     0.034 H 
BRANCH  14  17
ATOM     17  C   LIG d   1       9.500   6.251  -5.410  0.00  0.00    -0.045 A 
ATOM     18  C   LIG d   1       9.243   7.608  -5.457  0.00  0.00    -0.059 A 
ATOM     19  C   LIG d   1       9.332   8.288  -6.657  0.00  0.00    -0.061 A 
ATOM     20  H   LIG d   1       8.976   8.138  -4.554  0.00  0.00     0.062 H 
ATOM     21  C   LIG d   1       9.674   7.610  -7.812  0.00  0.00    -0.062 A 
ATOM     22  H   LIG d   1       9.130   9.349  -6.693  0.00  0.00     0.062 H 
ATOM     23  C   LIG d   1       9.930   6.252  -7.766  0.00  0.00    -0.061 A 
ATOM     24  H   LIG d   1       9.743   8.142  -8.750  0.00  0.00     0.062 H 
ATOM     25  C   LIG d   1       9.837   5.572  -6.566  0.00  0.00    -0.059 A 
ATOM     26  H   LIG d   1      10.198   5.723  -8.668  0.00  0.00     0.062 H 
ATOM     27  H   LIG d   1      10.034   4.510  -6.531  0.00  0.00     0.062 H 
ENDBRANCH  14  17
ENDBRANCH   5  14
ENDBRANCH   1   5
BRANCH   2  28
ATOM     28  C   LIG d   1      10.517   0.921  -4.848  0.00  0.00     0.042 C 
ATOM     29  H   LIG d   1      11.325   0.339  -5.314  0.00  0.00     0.038 H 
ATOM     30  H   LIG d   1      10.337   0.549  -3.828  0.00  0.00     0.038 H 
BRANCH  28  31
ATOM     31  C   LIG d   1       9.240   0.775  -5.677  0.00  0.00     0.036 C 
ATOM     32  H   LIG d   1       8.936   1.761  -6.060  0.00  0.00     0.050 H 
ATOM     33  H   LIG d   1       9.429   0.097  -6.523  0.00  0.00     0.050 H 
BRANCH  31  34
ATOM     34  N   LIG d   1       8.173   0.226  -4.839  0.00  0.00    -0.298 N 
ATOM     35  C   LIG d   1       7.326   1.064  -4.195  0.00  0.00     0.262 A 
ATOM     36  C   LIG d   1       6.273   0.458  -3.368  0.00  0.00     0.065 A 
ATOM     37  O   LIG d   1       7.433   2.272  -4.300  0.00  0.00    -0.267 OA
ATOM     38  C   LIG d   1       6.213  -0.952  -3.298  0.00  0.00     0.078 A 
ATOM     39  C   LIG d   1       5.351   1.232  -2.666  0.00  0.00    -0.047 A 
ATOM     40  N   LIG d   1       7.121  -1.684  -3.990  0.00  0.00    -0.237 NA
ATOM     41  C   LIG d   1       5.223  -1.556  -2.520  0.00  0.00    -0.035 A 
ATOM     42  C   LIG d   1       8.038  -1.121  -4.717  0.00  0.00     0.099 A 
ATOM     43  H   LIG d   1       8.730  -1.756  -5.250  0.00  0.00     0.103 H 
ATOM     44  C   LIG d   1       4.322  -0.774  -1.834  0.00  0.00    -0.060 A 
ATOM     45  H   LIG d   1       5.166  -2.633  -2.457  0.00  0.00     0.064 H 
ATOM     46  C   LIG d   1       4.384   0.612  -1.905  0.00  0.00    -0.061 A 
ATOM     47  H   LIG d   1       3.557  -1.243  -1.234  0.00  0.00     0.062 H 
ATOM     48  H   LIG d   1       3.668   1.208  -1.360  0.00  0.00     0.062 H 
ATOM     49  H   LIG d   1       5.394   2.310  -2.718  0.00  0.00     0.063 H 
ENDBRANCH  31  34
ENDBRANCH  28  31
ENDBRANCH   2  28
TORSDOF 9
ENDMDL
MODEL 6
REMARK VINA RESULT:      -6.6      3.522      6.112
REMARK  9 active torsions:
REMARK  status: ('A' for Active; 'I' for Inactive)
REMARK    1  A    between atoms: C_1  and  O_2 
REMARK    2  A    between atoms: O_2  and  C_3 
REMARK    3  A    between atoms: C_3  and  C_5 
REMARK    4  A    between atoms: C_5  and  C_7 
REMARK    5  A    between atoms: C_5  and  N_14 
REMARK    6  A    between atoms: C_7  and  C_8 
REMARK       I    between atoms: N_14  and  C_15 
REMARK    7  A    between atoms: C_15  and  C_17 
REMARK    8  A    between atoms: C_17  and  C_18 
REMARK    9  A    between atoms: C_18  and  N_19 
ROOT
ATOM      1  N   LIG d   1       8.450  -2.009  -5.707  0.00  0.00    -0.302 N 
ATOM      2  C   LIG d   1       8.997  -0.786  -5.846  0.00  0.00     0.215 C 
ATOM      3  O   LIG d   1       9.112  -0.060  -4.880  0.00  0.00    -0.276 OA
ATOM      4  H   LIG d   1       8.346  -2.667  -6.583  0.00  0.00     0.149 HD
ENDROOT
BRANCH   1   5
ATOM      5  C   LIG d   1       7.992  -2.462  -4.391  0.00  0.00     0.124 C 
ATOM      6  H   LIG d   1       8.086  -1.614  -3.697  0.00  0.00     0.062 H 
BRANCH   5   7
ATOM      7  C   LIG d   1       8.858  -3.603  -3.924  0.00  0.00     0.328 C 
ATOM      8  O   LIG d   1       9.077  -3.751  -2.744  0.00  0.00    -0.249 OA
BRANCH   7   9
ATOM      9  O   LIG d   1       9.386  -4.455  -4.816  0.00  0.00    -0.467 OA
BRANCH   9  10
ATOM     10  C   LIG d   1       8.915  -5.828  -4.777  0.00  0.00     0.082 C 
ATOM     11  H   LIG d   1       8.030  -5.894  -4.127  0.00  0.00     0.066 H 
ATOM     12  H   LIG d   1       9.711  -6.477  -4.381  0.00  0.00     0.066 H 
ATOM     13  H   LIG d   1       8.649  -6.153  -5.793  0.00  0.00     0.066 H 
ENDBRANCH   9  10
ENDBRANCH   7   9
ENDBRANCH   5   7
BRANCH   5  14
ATOM     14  C   LIG d   1       6.540  -2.933  -4.492  0.00  0.00     0.001 C 
ATOM     15  H   LIG d   1       6.207  -2.877  -5.538  0.00  0.00     0.034 H 
ATOM     16  H   LIG d   1       6.466  -3.972  -4.137  0.00  0.00     0.034 H 
BRANCH  14  17
ATOM     17  C   LIG d   1       5.665  -2.049  -3.640  0.00  0.00    -0.045 A 
ATOM     18  C   LIG d   1       6.123  -0.810  -3.232  0.00  0.00    -0.059 A 
ATOM     19  C   LIG d   1       5.321   0.000  -2.451  0.00  0.00    -0.061 A 
ATOM     20  H   LIG d   1       7.106  -0.474  -3.527  0.00  0.00     0.062 H 
ATOM     21  C   LIG d   1       4.062  -0.429  -2.074  0.00  0.00    -0.062 A 
ATOM     22  H   LIG d   1       5.679   0.968  -2.132  0.00  0.00     0.062 H 
ATOM     23  C   LIG d   1       3.605  -1.669  -2.481  0.00  0.00    -0.061 A 
ATOM     24  H   LIG d   1       3.436   0.205  -1.463  0.00  0.00     0.062 H 
ATOM     25  C   LIG d   1       4.409  -2.481  -3.259  0.00  0.00    -0.059 A 
ATOM     26  H   LIG d   1       2.621  -2.004  -2.187  0.00  0.00     0.062 H 
ATOM     27  H   LIG d   1       4.052  -3.451  -3.573  0.00  0.00     0.062 H 
ENDBRANCH  14  17
ENDBRANCH   5  14
ENDBRANCH   1   5
BRANCH   2  28
ATOM     28  C   LIG d   1       9.468  -0.318  -7.199  0.00  0.00     0.042 C 
ATOM     29  H   LIG d   1       9.413   0.779  -7.247  0.00  0.00     0.038 H 
ATOM     30  H   LIG d   1      10.509  -0.640  -7.356  0.00  0.00     0.038 H 
BRANCH  28  31
ATOM     31  C   LIG d   1       8.578  -0.922  -8.286  0.00  0.00     0.036 C 
ATOM     32  H   LIG d   1       9.156  -1.027  -9.217  0.00  0.00     0.050 H 
ATOM     33  H   LIG d   1       8.223  -1.911  -7.962  0.00  0.00     0.050 H 
BRANCH  31  34
ATOM     34  N   LIG d   1       7.430  -0.043  -8.522  0.00  0.00    -0.298 N 
ATOM     35  C   LIG d   1       6.188  -0.456  -8.177  0.00  0.00     0.262 A 
ATOM     36  C   LIG d   1       5.073   0.467  -8.435  0.00  0.00     0.065 A 
ATOM     37  O   LIG d   1       6.002  -1.547  -7.672  0.00  0.00    -0.267 OA
ATOM     38  C   LIG d   1       5.368   1.717  -9.023  0.00  0.00     0.078 A 
ATOM     39  C   LIG d   1       3.756   0.138  -8.117  0.00  0.00    -0.047 A 
ATOM     40  N   LIG d   1       6.657   2.014  -9.323  0.00  0.00    -0.237 NA
ATOM     41  C   LIG d   1       4.330   2.615  -9.279  0.00  0.00    -0.035 A 
ATOM     42  C   LIG d   1       7.623   1.181  -9.079  0.00  0.00     0.099 A 
ATOM     43  H   LIG d   1       8.629   1.475  -9.335  0.00  0.00     0.103 H 
ATOM     44  C   LIG d   1       3.036   2.272  -8.958  0.00  0.00    -0.060 A 
ATOM     45  H   LIG d   1       4.542   3.574  -9.728  0.00  0.00     0.064 H 
ATOM     46  C   LIG d   1       2.749   1.041  -8.381  0.00  0.00    -0.061 A 
ATOM     47  H   LIG d   1       2.235   2.967  -9.157  0.00  0.00     0.062 H 
ATOM     48  H   LIG d   1       1.728   0.791  -8.136  0.00  0.00     0.062 H 
ATOM     49  H   LIG d   1       3.527  -0.817  -7.668  0.00  0.00     0.063 H 
ENDBRANCH  31  34
ENDBRANCH  28  31
ENDBRANCH   2  28
TORSDOF 9
ENDMDL
MODEL 7
REMARK VINA RESULT:      -6.5      6.131      9.219
REMARK  9 active torsions:
REMARK  status: ('A' for Active; 'I' for Inactive)
REMARK    1  A    between atoms: C_1  and  O_2 
REMARK    2  A    between atoms: O_2  and  C_3 
REMARK    3  A    between atoms: C_3  and  C_5 
REMARK    4  A    between atoms: C_5  and  C_7 
REMARK    5  A    between atoms: C_5  and  N_14 
REMARK    6  A    between atoms: C_7  and  C_8 
REMARK       I    between atoms: N_14  and  C_15 
REMARK    7  A    between atoms: C_15  and  C_17 
REMARK    8  A    between atoms: C_17  and  C_18 
REMARK    9  A    between atoms: C_18  and  N_19 
ROOT
ATOM      1  N   LIG d   1       5.492  -4.855  -6.142  0.00  0.00    -0.302 N 
ATOM      2  C   LIG d   1       4.485  -5.733  -6.317  0.00  0.00     0.215 C 
ATOM      3  O   LIG d   1       3.340  -5.395  -6.099  0.00  0.00    -0.276 OA
ATOM      4  H   LIG d   1       6.529  -5.161  -6.340  0.00  0.00     0.149 HD
ENDROOT
BRANCH   1   5
ATOM      5  C   LIG d   1       5.204  -3.492  -5.687  0.00  0.00     0.124 C 
ATOM      6  H   LIG d   1       4.160  -3.470  -5.344  0.00  0.00     0.062 H 
BRANCH   5   7
ATOM      7  C   LIG d   1       5.383  -2.532  -6.835  0.00  0.00     0.328 C 
ATOM      8  O   LIG d   1       6.493  -2.258  -7.226  0.00  0.00    -0.249 OA
BRANCH   7   9
ATOM      9  O   LIG d   1       4.311  -1.980  -7.423  0.00  0.00    -0.467 OA
BRANCH   9  10
ATOM     10  C   LIG d   1       3.676  -2.740  -8.486  0.00  0.00     0.082 C 
ATOM     11  H   LIG d   1       2.586  -2.597  -8.439  0.00  0.00     0.066 H 
ATOM     12  H   LIG d   1       3.911  -3.808  -8.363  0.00  0.00     0.066 H 
ATOM     13  H   LIG d   1       4.050  -2.391  -9.459  0.00  0.00     0.066 H 
ENDBRANCH   9  10
ENDBRANCH   7   9
ENDBRANCH   5   7
BRANCH   5  14
ATOM     14  C   LIG d   1       6.164  -3.119  -4.557  0.00  0.00     0.001 C 
ATOM     15  H   LIG d   1       6.414  -4.018  -3.975  0.00  0.00     0.034 H 
ATOM     16  H   LIG d   1       7.084  -2.689  -4.983  0.00  0.00     0.034 H 
BRANCH  14  17
ATOM     17  C   LIG d   1       5.508  -2.105  -3.655  0.00  0.00    -0.045 A 
ATOM     18  C   LIG d   1       6.133  -0.898  -3.402  0.00  0.00    -0.059 A 
ATOM     19  C   LIG d   1       5.531   0.032  -2.575  0.00  0.00    -0.061 A 
ATOM     20  H   LIG d   1       7.090  -0.681  -3.853  0.00  0.00     0.062 H 
ATOM     21  C   LIG d   1       4.306  -0.245  -1.999  0.00  0.00    -0.062 A 
ATOM     22  H   LIG d   1       6.020   0.975  -2.378  0.00  0.00     0.062 H 
ATOM     23  C   LIG d   1       3.682  -1.452  -2.251  0.00  0.00    -0.061 A 
ATOM     24  H   LIG d   1       3.837   0.482  -1.352  0.00  0.00     0.062 H 
ATOM     25  C   LIG d   1       4.285  -2.384  -3.075  0.00  0.00    -0.059 A 
ATOM     26  H   LIG d   1       2.724  -1.669  -1.801  0.00  0.00     0.062 H 
ATOM     27  H   LIG d   1       3.799  -3.329  -3.268  0.00  0.00     0.062 H 
ENDBRANCH  14  17
ENDBRANCH   5  14
ENDBRANCH   1   5
BRANCH   2  28
ATOM     28  C   LIG d   1       4.780  -7.135  -6.784  0.00  0.00     0.042 C 
ATOM     29  H   LIG d   1       4.043  -7.827  -6.351  0.00  0.00     0.038 H 
ATOM     30  H   LIG d   1       4.720  -7.176  -7.882  0.00  0.00     0.038 H 
BRANCH  28  31
ATOM     31  C   LIG d   1       6.184  -7.539  -6.334  0.00  0.00     0.036 C 
ATOM     32  H   LIG d   1       6.693  -8.071  -7.153  0.00  0.00     0.050 H 
ATOM     33  H   LIG d   1       6.758  -6.638  -6.070  0.00  0.00     0.050 H 
BRANCH  31  34
ATOM     34  N   LIG d   1       6.090  -8.418  -5.166  0.00  0.00    -0.298 N 
ATOM     35  C   LIG d   1       7.103  -8.454  -4.269  0.00  0.00     0.262 A 
ATOM     36  C   LIG d   1       6.955  -9.353  -3.116  0.00  0.00     0.065 A 
ATOM     37  O   LIG d   1       8.097  -7.766  -4.412  0.00  0.00    -0.267 OA
ATOM     38  C   LIG d   1       5.771 -10.118  -3.020  0.00  0.00     0.078 A 
ATOM     39  C   LIG d   1       7.939  -9.463  -2.136  0.00  0.00    -0.047 A 
ATOM     40  N   LIG d   1       4.827  -9.994  -3.985  0.00  0.00    -0.237 NA
ATOM     41  C   LIG d   1       5.601 -10.981  -1.935  0.00  0.00    -0.035 A 
ATOM     42  C   LIG d   1       4.983  -9.187  -4.990  0.00  0.00     0.099 A 
ATOM     43  H   LIG d   1       4.195  -9.126  -5.726  0.00  0.00     0.103 H 
ATOM     44  C   LIG d   1       6.585 -11.075  -0.977  0.00  0.00    -0.060 A 
ATOM     45  H   LIG d   1       4.701 -11.571  -1.848  0.00  0.00     0.064 H 
ATOM     46  C   LIG d   1       7.748 -10.322  -1.076  0.00  0.00    -0.061 A 
ATOM     47  H   LIG d   1       6.451 -11.743  -0.139  0.00  0.00     0.062 H 
ATOM     48  H   LIG d   1       8.509 -10.410  -0.314  0.00  0.00     0.062 H 
ATOM     49  H   LIG d   1       8.846  -8.880  -2.207  0.00  0.00     0.063 H 
ENDBRANCH  31  34
ENDBRANCH  28  31
ENDBRANCH   2  28
TORSDOF 9
ENDMDL
MODEL 8
REMARK VINA RESULT:      -6.5      3.590      6.607
REMARK  9 active torsions:
REMARK  status: ('A' for Active; 'I' for Inactive)
REMARK    1  A    between atoms: C_1  and  O_2 
REMARK    2  A    between atoms: O_2  and  C_3 
REMARK    3  A    between atoms: C_3  and  C_5 
REMARK    4  A    between atoms: C_5  and  C_7 
REMARK    5  A    between atoms: C_5  and  N_14 
REMARK    6  A    between atoms: C_7  and  C_8 
REMARK       I    between atoms: N_14  and  C_15 
REMARK    7  A    between atoms: C_15  and  C_17 
REMARK    8  A    between atoms: C_17  and  C_18 
REMARK    9  A    between atoms: C_18  and  N_19 
ROOT
ATOM      1  N   LIG d   1       5.820  -1.840  -5.710  0.00  0.00    -0.302 N 
ATOM      2  C   LIG d   1       7.021  -1.230  -5.768  0.00  0.00     0.215 C 
ATOM      3  O   LIG d   1       7.815  -1.368  -4.862  0.00  0.00    -0.276 OA
ATOM      4  H   LIG d   1       5.100  -1.715  -6.532  0.00  0.00     0.149 HD
ENDROOT
BRANCH   1   5
ATOM      5  C   LIG d   1       5.474  -2.667  -4.551  0.00  0.00     0.124 C 
ATOM      6  H   LIG d   1       6.189  -2.431  -3.749  0.00  0.00     0.062 H 
BRANCH   5   7
ATOM      7  C   LIG d   1       5.588  -4.123  -4.922  0.00  0.00     0.328 C 
ATOM      8  O   LIG d   1       6.675  -4.644  -4.999  0.00  0.00    -0.249 OA
BRANCH   7   9
ATOM      9  O   LIG d   1       4.481  -4.842  -5.168  0.00  0.00    -0.467 OA
BRANCH   9  10
ATOM     10  C   LIG d   1       4.668  -6.215  -5.599  0.00  0.00     0.082 C 
ATOM     11  H   LIG d   1       4.183  -6.895  -4.882  0.00  0.00     0.066 H 
ATOM     12  H   LIG d   1       5.744  -6.441  -5.647  0.00  0.00     0.066 H 
ATOM     13  H   LIG d   1       4.219  -6.351  -6.594  0.00  0.00     0.066 H 
ENDBRANCH   9  10
ENDBRANCH   7   9
ENDBRANCH   5   7
BRANCH   5  14
ATOM     14  C   LIG d   1       4.039  -2.362  -4.118  0.00  0.00     0.001 C 
ATOM     15  H   LIG d   1       3.389  -2.318  -5.003  0.00  0.00     0.034 H 
ATOM     16  H   LIG d   1       3.685  -3.154  -3.441  0.00  0.00     0.034 H 
BRANCH  14  17
ATOM     17  C   LIG d   1       4.002  -1.036  -3.401  0.00  0.00    -0.045 A 
ATOM     18  C   LIG d   1       4.701  -0.869  -2.220  0.00  0.00    -0.059 A 
ATOM     19  C   LIG d   1       4.666   0.347  -1.564  0.00  0.00    -0.061 A 
ATOM     20  H   LIG d   1       5.275  -1.687  -1.812  0.00  0.00     0.062 H 
ATOM     21  C   LIG d   1       3.931   1.395  -2.086  0.00  0.00    -0.062 A 
ATOM     22  H   LIG d   1       5.212   0.477  -0.640  0.00  0.00     0.062 H 
ATOM     23  C   LIG d   1       3.233   1.227  -3.267  0.00  0.00    -0.061 A 
ATOM     24  H   LIG d   1       3.905   2.345  -1.572  0.00  0.00     0.062 H 
ATOM     25  C   LIG d   1       3.263   0.010  -3.921  0.00  0.00    -0.059 A 
ATOM     26  H   LIG d   1       2.659   2.046  -3.675  0.00  0.00     0.062 H 
ATOM     27  H   LIG d   1       2.714  -0.122  -4.842  0.00  0.00     0.062 H 
ENDBRANCH  14  17
ENDBRANCH   5  14
ENDBRANCH   1   5
BRANCH   2  28
ATOM     28  C   LIG d   1       7.377  -0.379  -6.959  0.00  0.00     0.042 C 
ATOM     29  H   LIG d   1       8.354   0.098  -6.789  0.00  0.00     0.038 H 
ATOM     30  H   LIG d   1       7.431  -1.011  -7.859  0.00  0.00     0.038 H 
BRANCH  28  31
ATOM     31  C   LIG d   1       6.310   0.699  -7.155  0.00  0.00     0.036 C 
ATOM     32  H   LIG d   1       5.674   0.752  -6.258  0.00  0.00     0.050 H 
ATOM     33  H   LIG d   1       6.798   1.672  -7.316  0.00  0.00     0.050 H 
BRANCH  31  34
ATOM     34  N   LIG d   1       5.487   0.366  -8.319  0.00  0.00    -0.298 N 
ATOM     35  C   LIG d   1       4.171   0.096  -8.156  0.00  0.00     0.262 A 
ATOM     36  C   LIG d   1       3.392  -0.231  -9.358  0.00  0.00     0.065 A 
ATOM     37  O   LIG d   1       3.653   0.125  -7.054  0.00  0.00    -0.267 OA
ATOM     38  C   LIG d   1       4.064  -0.243 -10.601  0.00  0.00     0.078 A 
ATOM     39  C   LIG d   1       2.031  -0.524  -9.298  0.00  0.00    -0.047 A 
ATOM     40  N   LIG d   1       5.389   0.045 -10.635  0.00  0.00    -0.237 NA
ATOM     41  C   LIG d   1       3.351  -0.550 -11.762  0.00  0.00    -0.035 A 
ATOM     42  C   LIG d   1       6.050   0.336  -9.556  0.00  0.00     0.099 A 
ATOM     43  H   LIG d   1       7.102   0.562  -9.645  0.00  0.00     0.103 H 
ATOM     44  C   LIG d   1       2.007  -0.836 -11.681  0.00  0.00    -0.060 A 
ATOM     45  H   LIG d   1       3.852  -0.563 -12.718  0.00  0.00     0.064 H 
ATOM     46  C   LIG d   1       1.350  -0.824 -10.458  0.00  0.00    -0.061 A 
ATOM     47  H   LIG d   1       1.457  -1.073 -12.579  0.00  0.00     0.062 H 
ATOM     48  H   LIG d   1       0.294  -1.051 -10.415  0.00  0.00     0.062 H 
ATOM     49  H   LIG d   1       1.514  -0.516  -8.350  0.00  0.00     0.063 H 
ENDBRANCH  31  34
ENDBRANCH  28  31
ENDBRANCH   2  28
TORSDOF 9
ENDMDL
MODEL 9
REMARK VINA RESULT:      -6.4      3.438      8.938
REMARK  9 active torsions:
REMARK  status: ('A' for Active; 'I' for Inactive)
REMARK    1  A    between atoms: C_1  and  O_2 
REMARK    2  A    between atoms: O_2  and  C_3 
REMARK    3  A    between atoms: C_3  and  C_5 
REMARK    4  A    between atoms: C_5  and  C_7 
REMARK    5  A    between atoms: C_5  and  N_14 
REMARK    6  A    between atoms: C_7  and  C_8 
REMARK       I    between atoms: N_14  and  C_15 
REMARK    7  A    between atoms: C_15  and  C_17 
REMARK    8  A    between atoms: C_17  and  C_18 
REMARK    9  A    between atoms: C_18  and  N_19 
ROOT
ATOM      1  N   LIG d   1      10.399   4.026  -2.253  0.00  0.00    -0.302 N 
ATOM      2  C   LIG d   1       9.686   3.667  -3.339  0.00  0.00     0.215 C 
ATOM      3  O   LIG d   1       9.347   4.507  -4.147  0.00  0.00    -0.276 OA
ATOM      4  H   LIG d   1      10.706   3.265  -1.521  0.00  0.00     0.149 HD
ENDROOT
BRANCH   1   5
ATOM      5  C   LIG d   1      10.763   5.430  -2.047  0.00  0.00     0.124 C 
ATOM      6  H   LIG d   1      10.067   6.044  -2.638  0.00  0.00     0.062 H 
BRANCH   5   7
ATOM      7  C   LIG d   1      12.174   5.658  -2.525  0.00  0.00     0.328 C 
ATOM      8  O   LIG d   1      13.098   5.126  -1.955  0.00  0.00    -0.249 OA
BRANCH   7   9
ATOM      9  O   LIG d   1      12.406   6.451  -3.582  0.00  0.00    -0.467 OA
BRANCH   9  10
ATOM     10  C   LIG d   1      12.597   5.801  -4.866  0.00  0.00     0.082 C 
ATOM     11  H   LIG d   1      12.096   4.822  -4.860  0.00  0.00     0.066 H 
ATOM     12  H   LIG d   1      13.673   5.661  -5.049  0.00  0.00     0.066 H 
ATOM     13  H   LIG d   1      12.168   6.428  -5.661  0.00  0.00     0.066 H 
ENDBRANCH   9  10
ENDBRANCH   7   9
ENDBRANCH   5   7
BRANCH   5  14
ATOM     14  C   LIG d   1      10.668   5.769  -0.559  0.00  0.00     0.001 C 
ATOM     15  H   LIG d   1       9.827   5.219  -0.110  0.00  0.00     0.034 H 
ATOM     16  H   LIG d   1      11.604   5.481  -0.057  0.00  0.00     0.034 H 
BRANCH  14  17
ATOM     17  C   LIG d   1      10.444   7.250  -0.393  0.00  0.00    -0.045 A 
ATOM     18  C   LIG d   1      11.223   7.972   0.492  0.00  0.00    -0.059 A 
ATOM     19  C   LIG d   1      11.018   9.330   0.644  0.00  0.00    -0.061 A 
ATOM     20  H   LIG d   1      11.992   7.474   1.064  0.00  0.00     0.062 H 
ATOM     21  C   LIG d   1      10.033   9.967  -0.088  0.00  0.00    -0.062 A 
ATOM     22  H   LIG d   1      11.626   9.894   1.336  0.00  0.00     0.062 H 
ATOM     23  C   LIG d   1       9.254   9.245  -0.973  0.00  0.00    -0.061 A 
ATOM     24  H   LIG d   1       9.873  11.029   0.032  0.00  0.00     0.062 H 
ATOM     25  C   LIG d   1       9.456   7.886  -1.121  0.00  0.00    -0.059 A 
ATOM     26  H   LIG d   1       8.485   9.743  -1.545  0.00  0.00     0.062 H 
ATOM     27  H   LIG d   1       8.845   7.321  -1.810  0.00  0.00     0.062 H 
ENDBRANCH  14  17
ENDBRANCH   5  14
ENDBRANCH   1   5
BRANCH   2  28
ATOM     28  C   LIG d   1       9.311   2.223  -3.551  0.00  0.00     0.042 C 
ATOM     29  H   LIG d   1      10.194   1.661  -3.890  0.00  0.00     0.038 H 
ATOM     30  H   LIG d   1       8.946   1.796  -2.605  0.00  0.00     0.038 H 
BRANCH  28  31
ATOM     31  C   LIG d   1       8.211   2.131  -4.611  0.00  0.00     0.036 C 
ATOM     32  H   LIG d   1       7.560   3.016  -4.541  0.00  0.00     0.050 H 
ATOM     33  H   LIG d   1       8.668   2.091  -5.610  0.00  0.00     0.050 H 
BRANCH  31  34
ATOM     34  N   LIG d   1       7.417   0.922  -4.386  0.00  0.00    -0.298 N 
ATOM     35  C   LIG d   1       6.375   0.954  -3.523  0.00  0.00     0.262 A 
ATOM     36  C   LIG d   1       5.612  -0.288  -3.337  0.00  0.00     0.065 A 
ATOM     37  O   LIG d   1       6.081   1.973  -2.926  0.00  0.00    -0.267 OA
ATOM     38  C   LIG d   1       6.013  -1.429  -4.067  0.00  0.00     0.078 A 
ATOM     39  C   LIG d   1       4.521  -0.362  -2.472  0.00  0.00    -0.047 A 
ATOM     40  N   LIG d   1       7.077  -1.334  -4.903  0.00  0.00    -0.237 NA
ATOM     41  C   LIG d   1       5.307  -2.624  -3.912  0.00  0.00    -0.035 A 
ATOM     42  C   LIG d   1       7.729  -0.221  -5.051  0.00  0.00     0.099 A 
ATOM     43  H   LIG d   1       8.565  -0.205  -5.735  0.00  0.00     0.103 H 
ATOM     44  C   LIG d   1       4.233  -2.675  -3.053  0.00  0.00    -0.060 A 
ATOM     45  H   LIG d   1       5.603  -3.504  -4.464  0.00  0.00     0.064 H 
ATOM     46  C   LIG d   1       3.842  -1.552  -2.336  0.00  0.00    -0.061 A 
ATOM     47  H   LIG d   1       3.688  -3.600  -2.935  0.00  0.00     0.062 H 
ATOM     48  H   LIG d   1       2.996  -1.612  -1.667  0.00  0.00     0.062 H 
ATOM     49  H   LIG d   1       4.212   0.509  -1.912  0.00  0.00     0.063 H 
ENDBRANCH  31  34
ENDBRANCH  28  31
ENDBRANCH   2  28
TORSDOF 9
ENDMDL
MODEL 10
REMARK VINA RESULT:      -6.4      6.414      9.992
REMARK  9 active torsions:
REMARK  status: ('A' for Active; 'I' for Inactive)
REMARK    1  A    between atoms: C_1  and  O_2 
REMARK    2  A    between atoms: O_2  and  C_3 
REMARK    3  A    between atoms: C_3  and  C_5 
REMARK    4  A    between atoms: C_5  and  C_7 
REMARK    5  A    between atoms: C_5  and  N_14 
REMARK    6  A    between atoms: C_7  and  C_8 
REMARK       I    between atoms: N_14  and  C_15 
REMARK    7  A    between atoms: C_15  and  C_17 
REMARK    8  A    between atoms: C_17  and  C_18 
REMARK    9  A    between atoms: C_18  and  N_19 
ROOT
ATOM      1  N   LIG d   1       4.589  -4.148  -5.231  0.00  0.00    -0.302 N 
ATOM      2  C   LIG d   1       4.281  -4.365  -6.525  0.00  0.00     0.215 C 
ATOM      3  O   LIG d   1       4.202  -3.430  -7.295  0.00  0.00    -0.276 OA
ATOM      4  H   LIG d   1       4.661  -4.995  -4.534  0.00  0.00     0.149 HD
ENDROOT
BRANCH   1   5
ATOM      5  C   LIG d   1       4.827  -2.783  -4.754  0.00  0.00     0.124 C 
ATOM      6  H   LIG d   1       4.311  -2.097  -5.441  0.00  0.00     0.062 H 
BRANCH   5   7
ATOM      7  C   LIG d   1       6.307  -2.499  -4.766  0.00  0.00     0.328 C 
ATOM      8  O   LIG d   1       7.018  -2.964  -3.906  0.00  0.00    -0.249 OA
BRANCH   7   9
ATOM      9  O   LIG d   1       6.836  -1.730  -5.730  0.00  0.00    -0.467 OA
BRANCH   9  10
ATOM     10  C   LIG d   1       6.570  -0.304  -5.658  0.00  0.00     0.082 C 
ATOM     11  H   LIG d   1       6.903   0.179  -6.589  0.00  0.00     0.066 H 
ATOM     12  H   LIG d   1       7.116   0.128  -4.806  0.00  0.00     0.066 H 
ATOM     13  H   LIG d   1       5.491  -0.139  -5.525  0.00  0.00     0.066 H 
ENDBRANCH   9  10
ENDBRANCH   7   9
ENDBRANCH   5   7
BRANCH   5  14
ATOM     14  C   LIG d   1       4.292  -2.642  -3.328  0.00  0.00     0.001 C 
ATOM     15  H   LIG d   1       3.338  -3.181  -3.238  0.00  0.00     0.034 H 
ATOM     16  H   LIG d   1       5.021  -3.064  -2.620  0.00  0.00     0.034 H 
BRANCH  14  17
ATOM     17  C   LIG d   1       4.076  -1.183  -3.016  0.00  0.00    -0.045 A 
ATOM     18  C   LIG d   1       3.282  -0.410  -3.842  0.00  0.00    -0.059 A 
ATOM     19  C   LIG d   1       3.083   0.928  -3.555  0.00  0.00    -0.061 A 
ATOM     20  H   LIG d   1       2.815  -0.851  -4.710  0.00  0.00     0.062 H 
ATOM     21  C   LIG d   1       3.680   1.493  -2.444  0.00  0.00    -0.062 A 
ATOM     22  H   LIG d   1       2.463   1.532  -4.201  0.00  0.00     0.062 H 
ATOM     23  C   LIG d   1       4.474   0.719  -1.618  0.00  0.00    -0.061 A 
ATOM     24  H   LIG d   1       3.525   2.539  -2.220  0.00  0.00     0.062 H 
ATOM     25  C   LIG d   1       4.677  -0.617  -1.907  0.00  0.00    -0.059 A 
ATOM     26  H   LIG d   1       4.940   1.161  -0.750  0.00  0.00     0.062 H 
ATOM     27  H   LIG d   1       5.301  -1.220  -1.264  0.00  0.00     0.062 H 
ENDBRANCH  14  17
ENDBRANCH   5  14
ENDBRANCH   1   5
BRANCH   2  28
ATOM     28  C   LIG d   1       4.035  -5.768  -7.017  0.00  0.00     0.042 C 
ATOM     29  H   LIG d   1       3.228  -6.227  -6.427  0.00  0.00     0.038 H 
ATOM     30  H   LIG d   1       3.743  -5.739  -8.077  0.00  0.00     0.038 H 
BRANCH  28  31
ATOM     31  C   LIG d   1       5.312  -6.595  -6.862  0.00  0.00     0.036 C 
ATOM     32  H   LIG d   1       5.879  -6.574  -7.806  0.00  0.00     0.050 H 
ATOM     33  H   LIG d   1       5.928  -6.171  -6.055  0.00  0.00     0.050 H 
BRANCH  31  34
ATOM     34  N   LIG d   1       4.962  -7.979  -6.534  0.00  0.00    -0.298 N 
ATOM     35  C   LIG d   1       4.834  -8.892  -7.525  0.00  0.00     0.262 A 
ATOM     36  C   LIG d   1       4.482 -10.265  -7.138  0.00  0.00     0.065 A 
ATOM     37  O   LIG d   1       5.006  -8.587  -8.691  0.00  0.00    -0.267 OA
ATOM     38  C   LIG d   1       4.300 -10.542  -5.765  0.00  0.00     0.078 A 
ATOM     39  C   LIG d   1       4.327 -11.280  -8.081  0.00  0.00    -0.047 A 
ATOM     40  N   LIG d   1       4.456  -9.539  -4.866  0.00  0.00    -0.237 NA
ATOM     41  C   LIG d   1       3.965 -11.838  -5.366  0.00  0.00    -0.035 A 
ATOM     42  C   LIG d   1       4.773  -8.335  -5.237  0.00  0.00     0.099 A 
ATOM     43  H   LIG d   1       4.888  -7.579  -4.475  0.00  0.00     0.103 H 
ATOM     44  C   LIG d   1       3.817 -12.826  -6.313  0.00  0.00    -0.060 A 
ATOM     45  H   LIG d   1       3.823 -12.063  -4.320  0.00  0.00     0.064 H 
ATOM     46  C   LIG d   1       3.996 -12.550  -7.663  0.00  0.00    -0.061 A 
ATOM     47  H   LIG d   1       3.559 -13.827  -6.003  0.00  0.00     0.062 H 
ATOM     48  H   LIG d   1       3.876 -13.339  -8.391  0.00  0.00     0.062 H 
ATOM     49  H   LIG d   1       4.466 -11.072  -9.132  0.00  0.00     0.063 H 
ENDBRANCH  31  34
ENDBRANCH  28  31
ENDBRANCH   2  28
TORSDOF 9
ENDMDL
