MODEL 1
REMARK VINA RESULT:      -7.9      0.000      0.000
REMARK  3 active torsions:
REMARK  status: ('A' for Active; 'I' for Inactive)
REMARK    1  A    between atoms: C_8  and  C_11 
REMARK    2  A    between atoms: C_11  and  N_12 
REMARK    3  A    between atoms: C_21  and  C_28 
ROOT
ATOM      1  N   LIG d   1       5.946  -0.210  -3.328  0.00  0.00    -0.297 N 
ATOM      2  C   LIG d   1       4.972   0.320  -2.369  0.00  0.00     0.004 C 
ATOM      3  C   LIG d   1       3.601  -0.304  -2.579  0.00  0.00    -0.009 C 
ATOM      4  H   LIG d   1       2.955   0.076  -1.773  0.00  0.00     0.033 H 
ATOM      5  C   LIG d   1       3.683  -1.832  -2.513  0.00  0.00    -0.038 C 
ATOM      6  C   LIG d   1       4.697  -2.286  -3.570  0.00  0.00     0.013 C 
ATOM      7  H   LIG d   1       4.736  -3.384  -3.613  0.00  0.00     0.038 H 
ATOM      8  C   LIG d   1       6.062  -1.671  -3.214  0.00  0.00     0.007 C 
ATOM      9  C   LIG d   1       4.289  -1.735  -4.917  0.00  0.00     0.034 C 
ATOM     10  C   LIG d   1       4.669  -2.441  -6.029  0.00  0.00     0.002 C 
ATOM     11  C   LIG d   1       4.360  -1.958  -7.317  0.00  0.00    -0.047 C 
ATOM     12  C   LIG d   1       3.725  -0.759  -7.431  0.00  0.00     0.004 C 
ATOM     13  C   LIG d   1       3.369  -0.058  -6.270  0.00  0.00     0.252 C 
ATOM     14  O   LIG d   1       2.860   1.047  -6.366  0.00  0.00    -0.268 OA
ATOM     15  N   LIG d   1       3.582  -0.591  -5.041  0.00  0.00    -0.311 N 
ATOM     16  C   LIG d   1       2.992   0.101  -3.910  0.00  0.00     0.030 C 
ATOM     17  H   LIG d   1       5.306   0.098  -1.344  0.00  0.00     0.043 H 
ATOM     18  H   LIG d   1       4.885   1.409  -2.497  0.00  0.00     0.043 H 
ATOM     19  H   LIG d   1       4.012  -2.139  -1.509  0.00  0.00     0.028 H 
ATOM     20  H   LIG d   1       2.693  -2.262  -2.722  0.00  0.00     0.028 H 
ATOM     21  H   LIG d   1       6.833  -2.033  -3.908  0.00  0.00     0.043 H 
ATOM     22  H   LIG d   1       6.341  -1.938  -2.183  0.00  0.00     0.043 H 
ATOM     23  H   LIG d   1       4.624  -2.527  -8.196  0.00  0.00     0.063 H 
ATOM     24  H   LIG d   1       3.499  -0.352  -8.405  0.00  0.00     0.067 H 
ATOM     25  H   LIG d   1       1.916  -0.126  -3.906  0.00  0.00     0.050 H 
ATOM     26  H   LIG d   1       3.138   1.179  -4.067  0.00  0.00     0.050 H 
ENDROOT
BRANCH   1  27
ATOM     27  C   LIG d   1       7.254   0.437  -3.160  0.00  0.00     0.025 C 
ATOM     28  H   LIG d   1       7.993  -0.310  -2.833  0.00  0.00     0.048 H 
ATOM     29  H   LIG d   1       7.177   1.231  -2.404  0.00  0.00     0.048 H 
BRANCH  27  30
ATOM     30  C   LIG d   1       7.691   1.033  -4.473  0.00  0.00    -0.015 A 
ATOM     31  C   LIG d   1       7.213   0.527  -5.648  0.00  0.00    -0.047 A 
ATOM     32  C   LIG d   1       7.647   1.114  -6.851  0.00  0.00     0.001 A 
ATOM     33  H   LIG d   1       6.519  -0.301  -5.654  0.00  0.00     0.063 H 
ATOM     34  C   LIG d   1       8.558   2.197  -6.796  0.00  0.00     0.071 A 
ATOM     35  C   LIG d   1       7.198   0.646  -8.097  0.00  0.00    -0.053 A 
ATOM     36  C   LIG d   1       8.994   2.785  -7.997  0.00  0.00    -0.036 A 
ATOM     37  N   LIG d   1       8.989   2.646  -5.613  0.00  0.00    -0.255 NA
ATOM     38  C   LIG d   1       8.538   2.308  -9.186  0.00  0.00    -0.060 A 
ATOM     39  H   LIG d   1       9.688   3.613  -7.976  0.00  0.00     0.064 H 
ATOM     40  C   LIG d   1       7.642   1.241  -9.238  0.00  0.00    -0.061 A 
ATOM     41  H   LIG d   1       8.875   2.762 -10.106  0.00  0.00     0.062 H 
ATOM     42  H   LIG d   1       7.296   0.881 -10.196  0.00  0.00     0.062 H 
ATOM     43  C   LIG d   1       8.581   2.105  -4.490  0.00  0.00     0.033 A 
ATOM     44  H   LIG d   1       8.948   2.498  -3.554  0.00  0.00     0.083 H 
ATOM     45  H   LIG d   1       6.504  -0.180  -8.149  0.00  0.00     0.062 H 
ENDBRANCH  27  30
ENDBRANCH   1  27
BRANCH  10  46
ATOM     46  C   LIG d   1       5.403  -3.721  -5.877  0.00  0.00    -0.016 A 
ATOM     47  C   LIG d   1       4.703  -4.915  -5.713  0.00  0.00    -0.053 A 
ATOM     48  C   LIG d   1       5.391  -6.102  -5.572  0.00  0.00    -0.043 A 
ATOM     49  H   LIG d   1       3.623  -4.910  -5.696  0.00  0.00     0.062 H 
ATOM     50  C   LIG d   1       6.775  -6.110  -5.594  0.00  0.00     0.041 A 
ATOM     51  H   LIG d   1       4.849  -7.028  -5.444  0.00  0.00     0.063 H 
ATOM     52  C   LIG d   1       7.476  -4.927  -5.756  0.00  0.00    -0.043 A 
ATOM     53 CL   LIG d   1       7.636  -7.607  -5.415  0.00  0.00    -0.084 Cl
ATOM     54  C   LIG d   1       6.797  -3.734  -5.903  0.00  0.00    -0.053 A 
ATOM     55  H   LIG d   1       8.556  -4.938  -5.773  0.00  0.00     0.063 H 
ATOM     56  H   LIG d   1       7.344  -2.813  -6.034  0.00  0.00     0.062 H 
ENDBRANCH  10  46
TORSDOF 3
ENDMDL
MODEL 2
REMARK VINA RESULT:      -7.6      3.227      5.934
REMARK  3 active torsions:
REMARK  status: ('A' for Active; 'I' for Inactive)
REMARK    1  A    between atoms: C_8  and  C_11 
REMARK    2  A    between atoms: C_11  and  N_12 
REMARK    3  A    between atoms: C_21  and  C_28 
ROOT
ATOM      1  N   LIG d   1       8.618  -2.427  -6.215  0.00  0.00    -0.297 N 
ATOM      2  C   LIG d   1       9.680  -3.164  -6.908  0.00  0.00     0.004 C 
ATOM      3  C   LIG d   1       9.099  -4.138  -7.922  0.00  0.00    -0.009 C 
ATOM      4  H   LIG d   1       9.952  -4.582  -8.456  0.00  0.00     0.033 H 
ATOM      5  C   LIG d   1       8.179  -3.412  -8.908  0.00  0.00    -0.038 C 
ATOM      6  C   LIG d   1       7.091  -2.706  -8.090  0.00  0.00     0.013 C 
ATOM      7  H   LIG d   1       6.360  -2.230  -8.760  0.00  0.00     0.038 H 
ATOM      8  C   LIG d   1       7.779  -1.685  -7.167  0.00  0.00     0.007 C 
ATOM      9  C   LIG d   1       6.396  -3.718  -7.211  0.00  0.00     0.034 C 
ATOM     10  C   LIG d   1       5.095  -3.464  -6.861  0.00  0.00     0.002 C 
ATOM     11  C   LIG d   1       4.404  -4.345  -6.005  0.00  0.00    -0.047 C 
ATOM     12  C   LIG d   1       5.068  -5.419  -5.497  0.00  0.00     0.004 C 
ATOM     13  C   LIG d   1       6.404  -5.637  -5.865  0.00  0.00     0.252 C 
ATOM     14  O   LIG d   1       7.025  -6.559  -5.361  0.00  0.00    -0.268 OA
ATOM     15  N   LIG d   1       7.017  -4.834  -6.771  0.00  0.00    -0.311 N 
ATOM     16  C   LIG d   1       8.319  -5.256  -7.251  0.00  0.00     0.030 C 
ATOM     17  H   LIG d   1      10.334  -2.455  -7.438  0.00  0.00     0.043 H 
ATOM     18  H   LIG d   1      10.272  -3.731  -6.176  0.00  0.00     0.043 H 
ATOM     19  H   LIG d   1       8.764  -2.679  -9.484  0.00  0.00     0.028 H 
ATOM     20  H   LIG d   1       7.728  -4.143  -9.595  0.00  0.00     0.028 H 
ATOM     21  H   LIG d   1       7.025  -1.105  -6.616  0.00  0.00     0.043 H 
ATOM     22  H   LIG d   1       8.408  -1.002  -7.757  0.00  0.00     0.043 H 
ATOM     23  H   LIG d   1       3.368  -4.170  -5.755  0.00  0.00     0.063 H 
ATOM     24  H   LIG d   1       4.572  -6.097  -4.819  0.00  0.00     0.067 H 
ATOM     25  H   LIG d   1       8.161  -6.075  -7.968  0.00  0.00     0.050 H 
ATOM     26  H   LIG d   1       8.887  -5.630  -6.387  0.00  0.00     0.050 H 
ENDROOT
BRANCH   1  27
ATOM     27  C   LIG d   1       9.180  -1.530  -5.197  0.00  0.00     0.025 C 
ATOM     28  H   LIG d   1       9.847  -0.800  -5.679  0.00  0.00     0.048 H 
ATOM     29  H   LIG d   1       9.750  -2.119  -4.463  0.00  0.00     0.048 H 
BRANCH  27  30
ATOM     30  C   LIG d   1       8.061  -0.802  -4.496  0.00  0.00    -0.015 A 
ATOM     31  C   LIG d   1       7.048  -1.507  -3.911  0.00  0.00    -0.047 A 
ATOM     32  C   LIG d   1       6.023  -0.788  -3.268  0.00  0.00     0.001 A 
ATOM     33  H   LIG d   1       7.034  -2.587  -3.940  0.00  0.00     0.063 H 
ATOM     34  C   LIG d   1       6.082   0.628  -3.255  0.00  0.00     0.071 A 
ATOM     35  C   LIG d   1       4.949  -1.444  -2.645  0.00  0.00    -0.053 A 
ATOM     36  C   LIG d   1       5.060   1.348  -2.613  0.00  0.00    -0.036 A 
ATOM     37  N   LIG d   1       7.102   1.257  -3.847  0.00  0.00    -0.255 NA
ATOM     38  C   LIG d   1       4.034   0.680  -2.018  0.00  0.00    -0.060 A 
ATOM     39  H   LIG d   1       5.087   2.428  -2.592  0.00  0.00     0.064 H 
ATOM     40  C   LIG d   1       3.978  -0.712  -2.034  0.00  0.00    -0.061 A 
ATOM     41  H   LIG d   1       3.251   1.238  -1.527  0.00  0.00     0.062 H 
ATOM     42  H   LIG d   1       3.152  -1.218  -1.554  0.00  0.00     0.062 H 
ATOM     43  C   LIG d   1       8.062   0.590  -4.442  0.00  0.00     0.033 A 
ATOM     44  H   LIG d   1       8.871   1.134  -4.905  0.00  0.00     0.083 H 
ATOM     45  H   LIG d   1       4.895  -2.523  -2.650  0.00  0.00     0.062 H 
ENDBRANCH  27  30
ENDBRANCH   1  27
BRANCH  10  46
ATOM     46  C   LIG d   1       4.410  -2.259  -7.390  0.00  0.00    -0.016 A 
ATOM     47  C   LIG d   1       3.853  -2.273  -8.667  0.00  0.00    -0.053 A 
ATOM     48  C   LIG d   1       3.217  -1.150  -9.153  0.00  0.00    -0.043 A 
ATOM     49  H   LIG d   1       3.920  -3.163  -9.275  0.00  0.00     0.062 H 
ATOM     50  C   LIG d   1       3.130  -0.009  -8.375  0.00  0.00     0.041 A 
ATOM     51  H   LIG d   1       2.786  -1.161 -10.144  0.00  0.00     0.063 H 
ATOM     52  C   LIG d   1       3.682   0.011  -7.105  0.00  0.00    -0.043 A 
ATOM     53 CL   LIG d   1       2.330   1.402  -8.993  0.00  0.00    -0.084 Cl
ATOM     54  C   LIG d   1       4.316  -1.109  -6.607  0.00  0.00    -0.053 A 
ATOM     55  H   LIG d   1       3.611   0.905  -6.501  0.00  0.00     0.063 H 
ATOM     56  H   LIG d   1       4.741  -1.094  -5.615  0.00  0.00     0.062 H 
ENDBRANCH  10  46
TORSDOF 3
ENDMDL
MODEL 3
REMARK VINA RESULT:      -7.6      3.092      5.272
REMARK  3 active torsions:
REMARK  status: ('A' for Active; 'I' for Inactive)
REMARK    1  A    between atoms: C_8  and  C_11 
REMARK    2  A    between atoms: C_11  and  N_12 
REMARK    3  A    between atoms: C_21  and  C_28 
ROOT
ATOM      1  N   LIG d   1       3.219  -0.083  -4.520  0.00  0.00    -0.297 N 
ATOM      2  C   LIG d   1       2.490  -0.585  -3.351  0.00  0.00     0.004 C 
ATOM      3  C   LIG d   1       3.437  -1.226  -2.349  0.00  0.00    -0.009 C 
ATOM      4  H   LIG d   1       2.831  -1.495  -1.470  0.00  0.00     0.033 H 
ATOM      5  C   LIG d   1       4.546  -0.249  -1.946  0.00  0.00    -0.038 C 
ATOM      6  C   LIG d   1       5.264   0.187  -3.228  0.00  0.00     0.013 C 
ATOM      7  H   LIG d   1       6.120   0.834  -2.983  0.00  0.00     0.038 H 
ATOM      8  C   LIG d   1       4.239   0.899  -4.127  0.00  0.00     0.007 C 
ATOM      9  C   LIG d   1       5.745  -1.038  -3.969  0.00  0.00     0.034 C 
ATOM     10  C   LIG d   1       6.849  -0.900  -4.770  0.00  0.00     0.002 C 
ATOM     11  C   LIG d   1       7.322  -1.993  -5.524  0.00  0.00    -0.047 C 
ATOM     12  C   LIG d   1       6.633  -3.166  -5.478  0.00  0.00     0.004 C 
ATOM     13  C   LIG d   1       5.497  -3.264  -4.661  0.00  0.00     0.252 C 
ATOM     14  O   LIG d   1       4.838  -4.290  -4.666  0.00  0.00    -0.268 OA
ATOM     15  N   LIG d   1       5.122  -2.232  -3.863  0.00  0.00    -0.311 N 
ATOM     16  C   LIG d   1       4.071  -2.493  -2.898  0.00  0.00     0.030 C 
ATOM     17  H   LIG d   1       1.968   0.249  -2.858  0.00  0.00     0.043 H 
ATOM     18  H   LIG d   1       1.755  -1.338  -3.671  0.00  0.00     0.043 H 
ATOM     19  H   LIG d   1       4.102   0.620  -1.439  0.00  0.00     0.028 H 
ATOM     20  H   LIG d   1       5.248  -0.752  -1.265  0.00  0.00     0.028 H 
ATOM     21  H   LIG d   1       4.734   1.294  -5.027  0.00  0.00     0.043 H 
ATOM     22  H   LIG d   1       3.762   1.725  -3.580  0.00  0.00     0.043 H 
ATOM     23  H   LIG d   1       8.211  -1.900  -6.129  0.00  0.00     0.063 H 
ATOM     24  H   LIG d   1       6.956  -4.012  -6.066  0.00  0.00     0.067 H 
ATOM     25  H   LIG d   1       4.513  -3.070  -2.073  0.00  0.00     0.050 H 
ATOM     26  H   LIG d   1       3.302  -3.100  -3.399  0.00  0.00     0.050 H 
ENDROOT
BRANCH   1  27
ATOM     27  C   LIG d   1       2.296   0.483  -5.512  0.00  0.00     0.025 C 
ATOM     28  H   LIG d   1       2.027   1.509  -5.219  0.00  0.00     0.048 H 
ATOM     29  H   LIG d   1       1.386  -0.134  -5.562  0.00  0.00     0.048 H 
BRANCH  27  30
ATOM     30  C   LIG d   1       2.962   0.505  -6.864  0.00  0.00    -0.015 A 
ATOM     31  C   LIG d   1       3.799  -0.510  -7.230  0.00  0.00    -0.047 A 
ATOM     32  C   LIG d   1       4.401  -0.451  -8.501  0.00  0.00     0.001 A 
ATOM     33  H   LIG d   1       3.993  -1.338  -6.564  0.00  0.00     0.063 H 
ATOM     34  C   LIG d   1       4.117   0.654  -9.343  0.00  0.00     0.071 A 
ATOM     35  C   LIG d   1       5.272  -1.457  -8.946  0.00  0.00    -0.053 A 
ATOM     36  C   LIG d   1       4.717   0.716 -10.613  0.00  0.00    -0.036 A 
ATOM     37  N   LIG d   1       3.289   1.615  -8.923  0.00  0.00    -0.255 NA
ATOM     38  C   LIG d   1       5.556  -0.277 -11.013  0.00  0.00    -0.060 A 
ATOM     39  H   LIG d   1       4.513   1.550 -11.269  0.00  0.00     0.064 H 
ATOM     40  C   LIG d   1       5.834  -1.362 -10.182  0.00  0.00    -0.061 A 
ATOM     41  H   LIG d   1       6.015  -0.225 -11.989  0.00  0.00     0.062 H 
ATOM     42  H   LIG d   1       6.504  -2.137 -10.524  0.00  0.00     0.062 H 
ATOM     43  C   LIG d   1       2.722   1.559  -7.742  0.00  0.00     0.033 A 
ATOM     44  H   LIG d   1       2.055   2.353  -7.441  0.00  0.00     0.083 H 
ATOM     45  H   LIG d   1       5.495  -2.303  -8.311  0.00  0.00     0.062 H 
ENDBRANCH  27  30
ENDBRANCH   1  27
BRANCH  10  46
ATOM     46  C   LIG d   1       7.553   0.405  -4.839  0.00  0.00    -0.016 A 
ATOM     47  C   LIG d   1       7.750   1.030  -6.068  0.00  0.00    -0.053 A 
ATOM     48  C   LIG d   1       8.404   2.243  -6.127  0.00  0.00    -0.043 A 
ATOM     49  H   LIG d   1       7.391   0.564  -6.975  0.00  0.00     0.062 H 
ATOM     50  C   LIG d   1       8.864   2.840  -4.966  0.00  0.00     0.041 A 
ATOM     51  H   LIG d   1       8.558   2.727  -7.080  0.00  0.00     0.063 H 
ATOM     52  C   LIG d   1       8.671   2.224  -3.742  0.00  0.00    -0.043 A 
ATOM     53 CL   LIG d   1       9.688   4.367  -5.046  0.00  0.00    -0.084 Cl
ATOM     54  C   LIG d   1       8.013   1.013  -3.672  0.00  0.00    -0.053 A 
ATOM     55  H   LIG d   1       9.031   2.695  -2.838  0.00  0.00     0.063 H 
ATOM     56  H   LIG d   1       7.859   0.535  -2.716  0.00  0.00     0.062 H 
ENDBRANCH  10  46
TORSDOF 3
ENDMDL
MODEL 4
REMARK VINA RESULT:      -7.3      3.077      6.735
REMARK  3 active torsions:
REMARK  status: ('A' for Active; 'I' for Inactive)
REMARK    1  A    between atoms: C_8  and  C_11 
REMARK    2  A    between atoms: C_11  and  N_12 
REMARK    3  A    between atoms: C_21  and  C_28 
ROOT
ATOM      1  N   LIG d   1       5.347  -2.230  -8.359  0.00  0.00    -0.297 N 
ATOM      2  C   LIG d   1       5.287  -3.162  -9.489  0.00  0.00     0.004 C 
ATOM      3  C   LIG d   1       5.683  -2.475 -10.787  0.00  0.00    -0.009 C 
ATOM      4  H   LIG d   1       5.698  -3.254 -11.563  0.00  0.00     0.033 H 
ATOM      5  C   LIG d   1       7.066  -1.829 -10.660  0.00  0.00    -0.038 C 
ATOM      6  C   LIG d   1       7.014  -0.854  -9.478  0.00  0.00     0.013 C 
ATOM      7  H   LIG d   1       7.964  -0.308  -9.393  0.00  0.00     0.038 H 
ATOM      8  C   LIG d   1       6.695  -1.663  -8.209  0.00  0.00     0.007 C 
ATOM      9  C   LIG d   1       5.881   0.123  -9.691  0.00  0.00     0.034 C 
ATOM     10  C   LIG d   1       5.999   1.362  -9.117  0.00  0.00     0.002 C 
ATOM     11  C   LIG d   1       4.957   2.304  -9.239  0.00  0.00    -0.047 C 
ATOM     12  C   LIG d   1       3.819   1.939  -9.891  0.00  0.00     0.004 C 
ATOM     13  C   LIG d   1       3.728   0.656 -10.450  0.00  0.00     0.252 C 
ATOM     14  O   LIG d   1       2.687   0.301 -10.977  0.00  0.00    -0.268 OA
ATOM     15  N   LIG d   1       4.783  -0.196 -10.411  0.00  0.00    -0.311 N 
ATOM     16  C   LIG d   1       4.677  -1.412 -11.195  0.00  0.00     0.030 C 
ATOM     17  H   LIG d   1       5.977  -4.001  -9.311  0.00  0.00     0.043 H 
ATOM     18  H   LIG d   1       4.263  -3.548  -9.594  0.00  0.00     0.043 H 
ATOM     19  H   LIG d   1       7.821  -2.610 -10.481  0.00  0.00     0.028 H 
ATOM     20  H   LIG d   1       7.307  -1.293 -11.590  0.00  0.00     0.028 H 
ATOM     21  H   LIG d   1       6.721  -1.008  -7.326  0.00  0.00     0.043 H 
ATOM     22  H   LIG d   1       7.424  -2.477  -8.084  0.00  0.00     0.043 H 
ATOM     23  H   LIG d   1       5.058   3.294  -8.820  0.00  0.00     0.063 H 
ATOM     24  H   LIG d   1       2.993   2.631  -9.977  0.00  0.00     0.067 H 
ATOM     25  H   LIG d   1       4.835  -1.143 -12.250  0.00  0.00     0.050 H 
ATOM     26  H   LIG d   1       3.658  -1.804 -11.065  0.00  0.00     0.050 H 
ENDROOT
BRANCH   1  27
ATOM     27  C   LIG d   1       4.909  -2.881  -7.117  0.00  0.00     0.025 C 
ATOM     28  H   LIG d   1       5.719  -3.518  -6.731  0.00  0.00     0.048 H 
ATOM     29  H   LIG d   1       4.022  -3.499  -7.320  0.00  0.00     0.048 H 
BRANCH  27  30
ATOM     30  C   LIG d   1       4.565  -1.830  -6.093  0.00  0.00    -0.015 A 
ATOM     31  C   LIG d   1       4.871  -2.032  -4.777  0.00  0.00    -0.047 A 
ATOM     32  C   LIG d   1       4.532  -1.025  -3.854  0.00  0.00     0.001 A 
ATOM     33  H   LIG d   1       5.361  -2.938  -4.453  0.00  0.00     0.063 H 
ATOM     34  C   LIG d   1       3.890   0.148  -4.323  0.00  0.00     0.071 A 
ATOM     35  C   LIG d   1       4.815  -1.161  -2.485  0.00  0.00    -0.053 A 
ATOM     36  C   LIG d   1       3.550   1.155  -3.403  0.00  0.00    -0.036 A 
ATOM     37  N   LIG d   1       3.618   0.283  -5.625  0.00  0.00    -0.255 NA
ATOM     38  C   LIG d   1       3.840   0.990  -2.084  0.00  0.00    -0.060 A 
ATOM     39  H   LIG d   1       3.060   2.057  -3.741  0.00  0.00     0.064 H 
ATOM     40  C   LIG d   1       4.470  -0.165  -1.625  0.00  0.00    -0.061 A 
ATOM     41  H   LIG d   1       3.576   1.766  -1.380  0.00  0.00     0.062 H 
ATOM     42  H   LIG d   1       4.689  -0.270  -0.572  0.00  0.00     0.062 H 
ATOM     43  C   LIG d   1       3.938  -0.650  -6.488  0.00  0.00     0.033 A 
ATOM     44  H   LIG d   1       3.706  -0.503  -7.532  0.00  0.00     0.083 H 
ATOM     45  H   LIG d   1       5.303  -2.052  -2.118  0.00  0.00     0.062 H 
ENDBRANCH  27  30
ENDBRANCH   1  27
BRANCH  10  46
ATOM     46  C   LIG d   1       7.230   1.716  -8.370  0.00  0.00    -0.016 A 
ATOM     47  C   LIG d   1       8.257   2.415  -9.001  0.00  0.00    -0.053 A 
ATOM     48  C   LIG d   1       9.399   2.741  -8.301  0.00  0.00    -0.043 A 
ATOM     49  H   LIG d   1       8.157   2.700 -10.038  0.00  0.00     0.062 H 
ATOM     50  C   LIG d   1       9.528   2.377  -6.972  0.00  0.00     0.041 A 
ATOM     51  H   LIG d   1      10.196   3.282  -8.791  0.00  0.00     0.063 H 
ATOM     52  C   LIG d   1       8.511   1.682  -6.339  0.00  0.00    -0.043 A 
ATOM     53 CL   LIG d   1      10.969   2.789  -6.096  0.00  0.00    -0.084 Cl
ATOM     54  C   LIG d   1       7.362   1.355  -7.029  0.00  0.00    -0.053 A 
ATOM     55  H   LIG d   1       8.616   1.400  -5.301  0.00  0.00     0.063 H 
ATOM     56  H   LIG d   1       6.567   0.817  -6.533  0.00  0.00     0.062 H 
ENDBRANCH  10  46
TORSDOF 3
ENDMDL
MODEL 5
REMARK VINA RESULT:      -7.0      3.271      6.841
REMARK  3 active torsions:
REMARK  status: ('A' for Active; 'I' for Inactive)
REMARK    1  A    between atoms: C_8  and  C_11 
REMARK    2  A    between atoms: C_11  and  N_12 
REMARK    3  A    between atoms: C_21  and  C_28 
ROOT
ATOM      1  N   LIG d   1       8.562  -2.837  -5.750  0.00  0.00    -0.297 N 
ATOM      2  C   LIG d   1       9.414  -3.730  -6.540  0.00  0.00     0.004 C 
ATOM      3  C   LIG d   1       9.998  -3.007  -7.744  0.00  0.00    -0.009 C 
ATOM      4  H   LIG d   1      10.688  -3.712  -8.231  0.00  0.00     0.033 H 
ATOM      5  C   LIG d   1      10.751  -1.746  -7.309  0.00  0.00    -0.038 C 
ATOM      6  C   LIG d   1       9.768  -0.869  -6.524  0.00  0.00     0.013 C 
ATOM      7  H   LIG d   1      10.242   0.085  -6.252  0.00  0.00     0.038 H 
ATOM      8  C   LIG d   1       9.311  -1.661  -5.286  0.00  0.00     0.007 C 
ATOM      9  C   LIG d   1       8.546  -0.610  -7.374  0.00  0.00     0.034 C 
ATOM     10  C   LIG d   1       7.850   0.548  -7.143  0.00  0.00     0.002 C 
ATOM     11  C   LIG d   1       6.675   0.828  -7.870  0.00  0.00    -0.047 C 
ATOM     12  C   LIG d   1       6.223  -0.094  -8.763  0.00  0.00     0.004 C 
ATOM     13  C   LIG d   1       6.954  -1.276  -8.959  0.00  0.00     0.252 C 
ATOM     14  O   LIG d   1       6.519  -2.135  -9.709  0.00  0.00    -0.268 OA
ATOM     15  N   LIG d   1       8.137  -1.476  -8.326  0.00  0.00    -0.311 N 
ATOM     16  C   LIG d   1       8.925  -2.620  -8.747  0.00  0.00     0.030 C 
ATOM     17  H   LIG d   1      10.243  -4.096  -5.915  0.00  0.00     0.043 H 
ATOM     18  H   LIG d   1       8.821  -4.585  -6.897  0.00  0.00     0.043 H 
ATOM     19  H   LIG d   1      11.605  -2.029  -6.675  0.00  0.00     0.028 H 
ATOM     20  H   LIG d   1      11.116  -1.212  -8.198  0.00  0.00     0.028 H 
ATOM     21  H   LIG d   1       8.660  -1.037  -4.656  0.00  0.00     0.043 H 
ATOM     22  H   LIG d   1      10.183  -1.988  -4.701  0.00  0.00     0.043 H 
ATOM     23  H   LIG d   1       6.142   1.755  -7.718  0.00  0.00     0.063 H 
ATOM     24  H   LIG d   1       5.312   0.081  -9.316  0.00  0.00     0.067 H 
ATOM     25  H   LIG d   1       9.395  -2.364  -9.708  0.00  0.00     0.050 H 
ATOM     26  H   LIG d   1       8.235  -3.464  -8.890  0.00  0.00     0.050 H 
ENDROOT
BRANCH   1  27
ATOM     27  C   LIG d   1       7.954  -3.554  -4.621  0.00  0.00     0.025 C 
ATOM     28  H   LIG d   1       8.644  -3.541  -3.764  0.00  0.00     0.048 H 
ATOM     29  H   LIG d   1       7.752  -4.595  -4.913  0.00  0.00     0.048 H 
BRANCH  27  30
ATOM     30  C   LIG d   1       6.662  -2.880  -4.235  0.00  0.00    -0.015 A 
ATOM     31  C   LIG d   1       6.684  -1.731  -3.498  0.00  0.00    -0.047 A 
ATOM     32  C   LIG d   1       5.455  -1.135  -3.158  0.00  0.00     0.001 A 
ATOM     33  H   LIG d   1       7.618  -1.290  -3.184  0.00  0.00     0.063 H 
ATOM     34  C   LIG d   1       4.253  -1.748  -3.592  0.00  0.00     0.071 A 
ATOM     35  C   LIG d   1       5.398   0.047  -2.403  0.00  0.00    -0.053 A 
ATOM     36  C   LIG d   1       3.023  -1.154  -3.254  0.00  0.00    -0.036 A 
ATOM     37  N   LIG d   1       4.301  -2.873  -4.311  0.00  0.00    -0.255 NA
ATOM     38  C   LIG d   1       3.006  -0.008  -2.521  0.00  0.00    -0.060 A 
ATOM     39  H   LIG d   1       2.096  -1.606  -3.576  0.00  0.00     0.064 H 
ATOM     40  C   LIG d   1       4.189   0.592  -2.096  0.00  0.00    -0.061 A 
ATOM     41  H   LIG d   1       2.059   0.444  -2.264  0.00  0.00     0.062 H 
ATOM     42  H   LIG d   1       4.147   1.502  -1.514  0.00  0.00     0.062 H 
ATOM     43  C   LIG d   1       5.444  -3.427  -4.634  0.00  0.00     0.033 A 
ATOM     44  H   LIG d   1       5.442  -4.334  -5.220  0.00  0.00     0.083 H 
ATOM     45  H   LIG d   1       6.309   0.521  -2.067  0.00  0.00     0.062 H 
ENDBRANCH  27  30
ENDBRANCH   1  27
BRANCH  10  46
ATOM     46  C   LIG d   1       8.338   1.513  -6.127  0.00  0.00    -0.016 A 
ATOM     47  C   LIG d   1       7.890   1.431  -4.811  0.00  0.00    -0.053 A 
ATOM     48  C   LIG d   1       8.347   2.331  -3.871  0.00  0.00    -0.043 A 
ATOM     49  H   LIG d   1       7.185   0.663  -4.527  0.00  0.00     0.062 H 
ATOM     50  C   LIG d   1       9.251   3.314  -4.233  0.00  0.00     0.041 A 
ATOM     51  H   LIG d   1       8.000   2.268  -2.849  0.00  0.00     0.063 H 
ATOM     52  C   LIG d   1       9.700   3.401  -5.540  0.00  0.00    -0.043 A 
ATOM     53 CL   LIG d   1       9.823   4.445  -3.045  0.00  0.00    -0.084 Cl
ATOM     54  C   LIG d   1       9.252   2.503  -6.486  0.00  0.00    -0.053 A 
ATOM     55  H   LIG d   1      10.406   4.171  -5.817  0.00  0.00     0.063 H 
ATOM     56  H   LIG d   1       9.606   2.568  -7.505  0.00  0.00     0.062 H 
ENDBRANCH  10  46
TORSDOF 3
ENDMDL
MODEL 6
REMARK VINA RESULT:      -6.9      2.457      4.720
REMARK  3 active torsions:
REMARK  status: ('A' for Active; 'I' for Inactive)
REMARK    1  A    between atoms: C_8  and  C_11 
REMARK    2  A    between atoms: C_11  and  N_12 
REMARK    3  A    between atoms: C_21  and  C_28 
ROOT
ATOM      1  N   LIG d   1       6.826   0.378  -6.939  0.00  0.00    -0.297 N 
ATOM      2  C   LIG d   1       8.063   0.918  -6.367  0.00  0.00     0.004 C 
ATOM      3  C   LIG d   1       8.357   0.295  -5.011  0.00  0.00    -0.009 C 
ATOM      4  H   LIG d   1       9.336   0.682  -4.692  0.00  0.00     0.033 H 
ATOM      5  C   LIG d   1       8.400  -1.233  -5.112  0.00  0.00    -0.038 C 
ATOM      6  C   LIG d   1       7.055  -1.696  -5.686  0.00  0.00     0.013 C 
ATOM      7  H   LIG d   1       7.009  -2.794  -5.707  0.00  0.00     0.038 H 
ATOM      8  C   LIG d   1       6.902  -1.082  -7.088  0.00  0.00     0.007 C 
ATOM      9  C   LIG d   1       5.936  -1.153  -4.827  0.00  0.00     0.034 C 
ATOM     10  C   LIG d   1       4.767  -1.868  -4.789  0.00  0.00     0.002 C 
ATOM     11  C   LIG d   1       3.668  -1.392  -4.044  0.00  0.00    -0.047 C 
ATOM     12  C   LIG d   1       3.778  -0.193  -3.410  0.00  0.00     0.004 C 
ATOM     13  C   LIG d   1       4.985   0.517  -3.487  0.00  0.00     0.252 C 
ATOM     14  O   LIG d   1       5.067   1.623  -2.977  0.00  0.00    -0.268 OA
ATOM     15  N   LIG d   1       6.063  -0.008  -4.122  0.00  0.00    -0.311 N 
ATOM     16  C   LIG d   1       7.324   0.692  -3.970  0.00  0.00     0.030 C 
ATOM     17  H   LIG d   1       8.905   0.701  -7.043  0.00  0.00     0.043 H 
ATOM     18  H   LIG d   1       7.967   2.006  -6.241  0.00  0.00     0.043 H 
ATOM     19  H   LIG d   1       9.225  -1.534  -5.775  0.00  0.00     0.028 H 
ATOM     20  H   LIG d   1       8.558  -1.662  -4.112  0.00  0.00     0.028 H 
ATOM     21  H   LIG d   1       5.981  -1.450  -7.564  0.00  0.00     0.043 H 
ATOM     22  H   LIG d   1       7.768  -1.343  -7.714  0.00  0.00     0.043 H 
ATOM     23  H   LIG d   1       2.757  -1.967  -3.981  0.00  0.00     0.063 H 
ATOM     24  H   LIG d   1       2.944   0.209  -2.853  0.00  0.00     0.067 H 
ATOM     25  H   LIG d   1       7.710   0.468  -2.965  0.00  0.00     0.050 H 
ATOM     26  H   LIG d   1       7.118   1.770  -4.051  0.00  0.00     0.050 H 
ENDROOT
BRANCH   1  27
ATOM     27  C   LIG d   1       6.515   1.023  -8.222  0.00  0.00     0.025 C 
ATOM     28  H   LIG d   1       7.284   0.758  -8.962  0.00  0.00     0.048 H 
ATOM     29  H   LIG d   1       6.496   2.115  -8.089  0.00  0.00     0.048 H 
BRANCH  27  30
ATOM     30  C   LIG d   1       5.168   0.553  -8.707  0.00  0.00    -0.015 A 
ATOM     31  C   LIG d   1       5.007   0.164 -10.007  0.00  0.00    -0.047 A 
ATOM     32  C   LIG d   1       3.732  -0.268 -10.419  0.00  0.00     0.001 A 
ATOM     33  H   LIG d   1       5.835   0.187 -10.700  0.00  0.00     0.063 H 
ATOM     34  C   LIG d   1       2.675  -0.281  -9.476  0.00  0.00     0.071 A 
ATOM     35  C   LIG d   1       3.491  -0.682 -11.738  0.00  0.00    -0.053 A 
ATOM     36  C   LIG d   1       1.400  -0.712  -9.885  0.00  0.00    -0.036 A 
ATOM     37  N   LIG d   1       2.899   0.113  -8.218  0.00  0.00    -0.255 NA
ATOM     38  C   LIG d   1       1.202  -1.107 -11.172  0.00  0.00    -0.060 A 
ATOM     39  H   LIG d   1       0.581  -0.730  -9.181  0.00  0.00     0.064 H 
ATOM     40  C   LIG d   1       2.244  -1.093 -12.097  0.00  0.00    -0.061 A 
ATOM     41  H   LIG d   1       0.222  -1.437 -11.481  0.00  0.00     0.062 H 
ATOM     42  H   LIG d   1       2.059  -1.412 -13.113  0.00  0.00     0.062 H 
ATOM     43  C   LIG d   1       4.086   0.510  -7.830  0.00  0.00     0.033 A 
ATOM     44  H   LIG d   1       4.229   0.816  -6.804  0.00  0.00     0.083 H 
ATOM     45  H   LIG d   1       4.291  -0.675 -12.465  0.00  0.00     0.062 H 
ENDBRANCH  27  30
ENDBRANCH   1  27
BRANCH  10  46
ATOM     46  C   LIG d   1       4.659  -3.148  -5.530  0.00  0.00    -0.016 A 
ATOM     47  C   LIG d   1       5.010  -4.346  -4.913  0.00  0.00    -0.053 A 
ATOM     48  C   LIG d   1       4.907  -5.534  -5.606  0.00  0.00    -0.043 A 
ATOM     49  H   LIG d   1       5.363  -4.345  -3.892  0.00  0.00     0.062 H 
ATOM     50  C   LIG d   1       4.454  -5.538  -6.914  0.00  0.00     0.041 A 
ATOM     51  H   LIG d   1       5.180  -6.464  -5.128  0.00  0.00     0.063 H 
ATOM     52  C   LIG d   1       4.103  -4.350  -7.533  0.00  0.00    -0.043 A 
ATOM     53 CL   LIG d   1       4.327  -7.036  -7.783  0.00  0.00    -0.084 Cl
ATOM     54  C   LIG d   1       4.198  -3.157  -6.846  0.00  0.00    -0.053 A 
ATOM     55  H   LIG d   1       3.751  -4.358  -8.554  0.00  0.00     0.063 H 
ATOM     56  H   LIG d   1       3.920  -2.231  -7.328  0.00  0.00     0.062 H 
ENDBRANCH  10  46
TORSDOF 3
ENDMDL
MODEL 7
REMARK VINA RESULT:      -6.9      3.371      6.091
REMARK  3 active torsions:
REMARK  status: ('A' for Active; 'I' for Inactive)
REMARK    1  A    between atoms: C_8  and  C_11 
REMARK    2  A    between atoms: C_11  and  N_12 
REMARK    3  A    between atoms: C_21  and  C_28 
ROOT
ATOM      1  N   LIG d   1       9.475  -0.521  -5.808  0.00  0.00    -0.297 N 
ATOM      2  C   LIG d   1      10.844  -1.025  -5.946  0.00  0.00     0.004 C 
ATOM      3  C   LIG d   1      10.887  -2.254  -6.842  0.00  0.00    -0.009 C 
ATOM      4  H   LIG d   1      11.949  -2.516  -6.966  0.00  0.00     0.033 H 
ATOM      5  C   LIG d   1      10.254  -1.956  -8.204  0.00  0.00    -0.038 C 
ATOM      6  C   LIG d   1       8.822  -1.470  -7.952  0.00  0.00     0.013 C 
ATOM      7  H   LIG d   1       8.300  -1.314  -8.907  0.00  0.00     0.038 H 
ATOM      8  C   LIG d   1       8.899  -0.181  -7.117  0.00  0.00     0.007 C 
ATOM      9  C   LIG d   1       8.086  -2.501  -7.129  0.00  0.00     0.034 C 
ATOM     10  C   LIG d   1       6.725  -2.570  -7.273  0.00  0.00     0.002 C 
ATOM     11  C   LIG d   1       5.973  -3.479  -6.500  0.00  0.00    -0.047 C 
ATOM     12  C   LIG d   1       6.620  -4.245  -5.579  0.00  0.00     0.004 C 
ATOM     13  C   LIG d   1       8.012  -4.134  -5.449  0.00  0.00     0.252 C 
ATOM     14  O   LIG d   1       8.589  -4.769  -4.581  0.00  0.00    -0.268 OA
ATOM     15  N   LIG d   1       8.727  -3.330  -6.276  0.00  0.00    -0.311 N 
ATOM     16  C   LIG d   1      10.172  -3.438  -6.214  0.00  0.00     0.030 C 
ATOM     17  H   LIG d   1      11.480  -0.244  -6.390  0.00  0.00     0.043 H 
ATOM     18  H   LIG d   1      11.238  -1.298  -4.956  0.00  0.00     0.043 H 
ATOM     19  H   LIG d   1      10.839  -1.179  -8.719  0.00  0.00     0.028 H 
ATOM     20  H   LIG d   1      10.247  -2.872  -8.813  0.00  0.00     0.028 H 
ATOM     21  H   LIG d   1       7.893   0.241  -6.977  0.00  0.00     0.043 H 
ATOM     22  H   LIG d   1       9.540   0.560  -7.619  0.00  0.00     0.043 H 
ATOM     23  H   LIG d   1       4.905  -3.562  -6.634  0.00  0.00     0.063 H 
ATOM     24  H   LIG d   1       6.067  -4.931  -4.955  0.00  0.00     0.067 H 
ATOM     25  H   LIG d   1      10.460  -4.361  -6.738  0.00  0.00     0.050 H 
ATOM     26  H   LIG d   1      10.455  -3.516  -5.153  0.00  0.00     0.050 H 
ENDROOT
BRANCH   1  27
ATOM     27  C   LIG d   1       9.428   0.631  -4.897  0.00  0.00     0.025 C 
ATOM     28  H   LIG d   1       9.549   1.560  -5.474  0.00  0.00     0.048 H 
ATOM     29  H   LIG d   1      10.240   0.549  -4.160  0.00  0.00     0.048 H 
BRANCH  27  30
ATOM     30  C   LIG d   1       8.101   0.653  -4.182  0.00  0.00    -0.015 A 
ATOM     31  C   LIG d   1       7.455  -0.518  -3.904  0.00  0.00    -0.047 A 
ATOM     32  C   LIG d   1       6.218  -0.452  -3.236  0.00  0.00     0.001 A 
ATOM     33  H   LIG d   1       7.881  -1.468  -4.188  0.00  0.00     0.063 H 
ATOM     34  C   LIG d   1       5.696   0.817  -2.882  0.00  0.00     0.071 A 
ATOM     35  C   LIG d   1       5.496  -1.613  -2.917  0.00  0.00    -0.053 A 
ATOM     36  C   LIG d   1       4.461   0.886  -2.214  0.00  0.00    -0.036 A 
ATOM     37  N   LIG d   1       6.380   1.926  -3.184  0.00  0.00    -0.255 NA
ATOM     38  C   LIG d   1       3.788  -0.259  -1.920  0.00  0.00    -0.060 A 
ATOM     39  H   LIG d   1       4.047   1.844  -1.936  0.00  0.00     0.064 H 
ATOM     40  C   LIG d   1       4.303  -1.506  -2.270  0.00  0.00    -0.061 A 
ATOM     41  H   LIG d   1       2.839  -0.202  -1.407  0.00  0.00     0.062 H 
ATOM     42  H   LIG d   1       3.748  -2.400  -2.024  0.00  0.00     0.062 H 
ATOM     43  C   LIG d   1       7.535   1.867  -3.801  0.00  0.00     0.033 A 
ATOM     44  H   LIG d   1       8.059   2.785  -4.023  0.00  0.00     0.083 H 
ATOM     45  H   LIG d   1       5.885  -2.585  -3.183  0.00  0.00     0.062 H 
ENDBRANCH  27  30
ENDBRANCH   1  27
BRANCH  10  46
ATOM     46  C   LIG d   1       6.039  -1.687  -8.249  0.00  0.00    -0.016 A 
ATOM     47  C   LIG d   1       5.409  -0.523  -7.818  0.00  0.00    -0.053 A 
ATOM     48  C   LIG d   1       4.774   0.294  -8.730  0.00  0.00    -0.043 A 
ATOM     49  H   LIG d   1       5.417  -0.260  -6.770  0.00  0.00     0.062 H 
ATOM     50  C   LIG d   1       4.763  -0.041 -10.072  0.00  0.00     0.041 A 
ATOM     51  H   LIG d   1       4.284   1.197  -8.395  0.00  0.00     0.063 H 
ATOM     52  C   LIG d   1       5.388  -1.197 -10.507  0.00  0.00    -0.043 A 
ATOM     53 CL   LIG d   1       3.961   0.991 -11.216  0.00  0.00    -0.084 Cl
ATOM     54  C   LIG d   1       6.030  -2.018  -9.603  0.00  0.00    -0.053 A 
ATOM     55  H   LIG d   1       5.377  -1.454 -11.556  0.00  0.00     0.063 H 
ATOM     56  H   LIG d   1       6.522  -2.918  -9.943  0.00  0.00     0.062 H 
ENDBRANCH  10  46
TORSDOF 3
ENDMDL
MODEL 8
REMARK VINA RESULT:      -6.7      2.902      5.819
REMARK  3 active torsions:
REMARK  status: ('A' for Active; 'I' for Inactive)
REMARK    1  A    between atoms: C_8  and  C_11 
REMARK    2  A    between atoms: C_11  and  N_12 
REMARK    3  A    between atoms: C_21  and  C_28 
ROOT
ATOM      1  N   LIG d   1       6.437  -2.268  -8.325  0.00  0.00    -0.297 N 
ATOM      2  C   LIG d   1       7.405  -1.822  -9.332  0.00  0.00     0.004 C 
ATOM      3  C   LIG d   1       8.762  -2.471  -9.112  0.00  0.00    -0.009 C 
ATOM      4  H   LIG d   1       9.401  -2.156  -9.952  0.00  0.00     0.033 H 
ATOM      5  C   LIG d   1       8.639  -3.997  -9.086  0.00  0.00    -0.038 C 
ATOM      6  C   LIG d   1       7.636  -4.360  -7.984  0.00  0.00     0.013 C 
ATOM      7  H   LIG d   1       7.568  -5.452  -7.876  0.00  0.00     0.038 H 
ATOM      8  C   LIG d   1       6.281  -3.730  -8.351  0.00  0.00     0.007 C 
ATOM      9  C   LIG d   1       8.086  -3.743  -6.681  0.00  0.00     0.034 C 
ATOM     10  C   LIG d   1       7.711  -4.372  -5.522  0.00  0.00     0.002 C 
ATOM     11  C   LIG d   1       8.059  -3.823  -4.271  0.00  0.00    -0.047 C 
ATOM     12  C   LIG d   1       8.728  -2.637  -4.240  0.00  0.00     0.004 C 
ATOM     13  C   LIG d   1       9.078  -2.015  -5.447  0.00  0.00     0.252 C 
ATOM     14  O   LIG d   1       9.618  -0.920  -5.426  0.00  0.00    -0.268 OA
ATOM     15  N   LIG d   1       8.825  -2.613  -6.638  0.00  0.00    -0.311 N 
ATOM     16  C   LIG d   1       9.410  -2.005  -7.819  0.00  0.00     0.030 C 
ATOM     17  H   LIG d   1       7.043  -2.095 -10.335  0.00  0.00     0.043 H 
ATOM     18  H   LIG d   1       7.523  -0.730  -9.271  0.00  0.00     0.043 H 
ATOM     19  H   LIG d   1       8.281  -4.353 -10.064  0.00  0.00     0.028 H 
ATOM     20  H   LIG d   1       9.622  -4.441  -8.871  0.00  0.00     0.028 H 
ATOM     21  H   LIG d   1       5.514  -4.029  -7.621  0.00  0.00     0.043 H 
ATOM     22  H   LIG d   1       5.973  -4.049  -9.358  0.00  0.00     0.043 H 
ATOM     23  H   LIG d   1       7.798  -4.331  -3.355  0.00  0.00     0.063 H 
ATOM     24  H   LIG d   1       8.985  -2.180  -3.296  0.00  0.00     0.067 H 
ATOM     25  H   LIG d   1      10.479  -2.262  -7.830  0.00  0.00     0.050 H 
ATOM     26  H   LIG d   1       9.295  -0.916  -7.723  0.00  0.00     0.050 H 
ENDROOT
BRANCH   1  27
ATOM     27  C   LIG d   1       5.143  -1.597  -8.505  0.00  0.00     0.025 C 
ATOM     28  H   LIG d   1       4.445  -2.276  -9.018  0.00  0.00     0.048 H 
ATOM     29  H   LIG d   1       5.282  -0.689  -9.111  0.00  0.00     0.048 H 
BRANCH  27  30
ATOM     30  C   LIG d   1       4.580  -1.221  -7.159  0.00  0.00    -0.015 A 
ATOM     31  C   LIG d   1       4.851  -1.993  -6.065  0.00  0.00    -0.047 A 
ATOM     32  C   LIG d   1       4.305  -1.606  -4.826  0.00  0.00     0.001 A 
ATOM     33  H   LIG d   1       5.468  -2.875  -6.147  0.00  0.00     0.063 H 
ATOM     34  C   LIG d   1       3.501  -0.441  -4.765  0.00  0.00     0.071 A 
ATOM     35  C   LIG d   1       4.539  -2.350  -3.659  0.00  0.00    -0.053 A 
ATOM     36  C   LIG d   1       2.955  -0.052  -3.529  0.00  0.00    -0.036 A 
ATOM     37  N   LIG d   1       3.274   0.271  -5.874  0.00  0.00    -0.255 NA
ATOM     38  C   LIG d   1       3.203  -0.796  -2.418  0.00  0.00    -0.060 A 
ATOM     39  H   LIG d   1       2.339   0.834  -3.462  0.00  0.00     0.064 H 
ATOM     40  C   LIG d   1       3.993  -1.943  -2.481  0.00  0.00    -0.061 A 
ATOM     41  H   LIG d   1       2.781  -0.494  -1.471  0.00  0.00     0.062 H 
ATOM     42  H   LIG d   1       4.175  -2.515  -1.583  0.00  0.00     0.062 H 
ATOM     43  C   LIG d   1       3.787  -0.083  -7.028  0.00  0.00     0.033 A 
ATOM     44  H   LIG d   1       3.584   0.520  -7.900  0.00  0.00     0.083 H 
ATOM     45  H   LIG d   1       5.150  -3.240  -3.696  0.00  0.00     0.062 H 
ENDBRANCH  27  30
ENDBRANCH   1  27
BRANCH  10  46
ATOM     46  C   LIG d   1       6.940  -5.638  -5.584  0.00  0.00    -0.016 A 
ATOM     47  C   LIG d   1       5.548  -5.612  -5.546  0.00  0.00    -0.053 A 
ATOM     48  C   LIG d   1       4.836  -6.793  -5.605  0.00  0.00    -0.043 A 
ATOM     49  H   LIG d   1       5.027  -4.669  -5.470  0.00  0.00     0.062 H 
ATOM     50  C   LIG d   1       5.503  -8.001  -5.702  0.00  0.00     0.041 A 
ATOM     51  H   LIG d   1       3.756  -6.773  -5.574  0.00  0.00     0.063 H 
ATOM     52  C   LIG d   1       6.887  -8.033  -5.741  0.00  0.00    -0.043 A 
ATOM     53 CL   LIG d   1       4.602  -9.484  -5.775  0.00  0.00    -0.084 Cl
ATOM     54  C   LIG d   1       7.607  -6.857  -5.688  0.00  0.00    -0.053 A 
ATOM     55  H   LIG d   1       7.402  -8.979  -5.817  0.00  0.00     0.063 H 
ATOM     56  H   LIG d   1       8.687  -6.882  -5.722  0.00  0.00     0.062 H 
ENDBRANCH  10  46
TORSDOF 3
ENDMDL
MODEL 9
REMARK VINA RESULT:      -6.6      3.352      5.728
REMARK  3 active torsions:
REMARK  status: ('A' for Active; 'I' for Inactive)
REMARK    1  A    between atoms: C_8  and  C_11 
REMARK    2  A    between atoms: C_11  and  N_12 
REMARK    3  A    between atoms: C_21  and  C_28 
ROOT
ATOM      1  N   LIG d   1       6.430  -1.903  -8.301  0.00  0.00    -0.297 N 
ATOM      2  C   LIG d   1       5.686  -1.889  -9.565  0.00  0.00     0.004 C 
ATOM      3  C   LIG d   1       4.239  -2.306  -9.353  0.00  0.00    -0.009 C 
ATOM      4  H   LIG d   1       3.732  -2.185 -10.322  0.00  0.00     0.033 H 
ATOM      5  C   LIG d   1       3.569  -1.427  -8.293  0.00  0.00    -0.038 C 
ATOM      6  C   LIG d   1       4.400  -1.538  -7.009  0.00  0.00     0.013 C 
ATOM      7  H   LIG d   1       3.915  -0.981  -6.193  0.00  0.00     0.038 H 
ATOM      8  C   LIG d   1       5.812  -1.009  -7.311  0.00  0.00     0.007 C 
ATOM      9  C   LIG d   1       4.531  -2.993  -6.627  0.00  0.00     0.034 C 
ATOM     10  C   LIG d   1       4.703  -3.285  -5.298  0.00  0.00     0.002 C 
ATOM     11  C   LIG d   1       4.879  -4.620  -4.881  0.00  0.00    -0.047 C 
ATOM     12  C   LIG d   1       4.923  -5.600  -5.824  0.00  0.00     0.004 C 
ATOM     13  C   LIG d   1       4.761  -5.260  -7.175  0.00  0.00     0.252 C 
ATOM     14  O   LIG d   1       4.866  -6.124  -8.031  0.00  0.00    -0.268 OA
ATOM     15  N   LIG d   1       4.489  -3.983  -7.545  0.00  0.00    -0.311 N 
ATOM     16  C   LIG d   1       4.125  -3.762  -8.932  0.00  0.00     0.030 C 
ATOM     17  H   LIG d   1       5.700  -0.873  -9.988  0.00  0.00     0.043 H 
ATOM     18  H   LIG d   1       6.153  -2.587 -10.274  0.00  0.00     0.043 H 
ATOM     19  H   LIG d   1       3.541  -0.385  -8.645  0.00  0.00     0.028 H 
ATOM     20  H   LIG d   1       2.543  -1.782  -8.118  0.00  0.00     0.028 H 
ATOM     21  H   LIG d   1       6.419  -1.003  -6.394  0.00  0.00     0.043 H 
ATOM     22  H   LIG d   1       5.757   0.011  -7.721  0.00  0.00     0.043 H 
ATOM     23  H   LIG d   1       4.979  -4.859  -3.833  0.00  0.00     0.063 H 
ATOM     24  H   LIG d   1       5.083  -6.629  -5.536  0.00  0.00     0.067 H 
ATOM     25  H   LIG d   1       3.088  -4.102  -9.062  0.00  0.00     0.050 H 
ATOM     26  H   LIG d   1       4.793  -4.376  -9.553  0.00  0.00     0.050 H 
ENDROOT
BRANCH   1  27
ATOM     27  C   LIG d   1       7.841  -1.555  -8.518  0.00  0.00     0.025 C 
ATOM     28  H   LIG d   1       7.934  -0.467  -8.650  0.00  0.00     0.048 H 
ATOM     29  H   LIG d   1       8.211  -2.067  -9.418  0.00  0.00     0.048 H 
BRANCH  27  30
ATOM     30  C   LIG d   1       8.654  -1.988  -7.324  0.00  0.00    -0.015 A 
ATOM     31  C   LIG d   1       8.188  -2.973  -6.501  0.00  0.00    -0.047 A 
ATOM     32  C   LIG d   1       8.979  -3.346  -5.398  0.00  0.00     0.001 A 
ATOM     33  H   LIG d   1       7.241  -3.454  -6.691  0.00  0.00     0.063 H 
ATOM     34  C   LIG d   1      10.216  -2.688  -5.187  0.00  0.00     0.071 A 
ATOM     35  C   LIG d   1       8.566  -4.350  -4.508  0.00  0.00    -0.053 A 
ATOM     36  C   LIG d   1      11.008  -3.059  -4.085  0.00  0.00    -0.036 A 
ATOM     37  N   LIG d   1      10.613  -1.731  -6.031  0.00  0.00    -0.255 NA
ATOM     38  C   LIG d   1      10.577  -4.037  -3.243  0.00  0.00    -0.060 A 
ATOM     39  H   LIG d   1      11.954  -2.569  -3.908  0.00  0.00     0.064 H 
ATOM     40  C   LIG d   1       9.360  -4.682  -3.453  0.00  0.00    -0.061 A 
ATOM     41  H   LIG d   1      11.188  -4.318  -2.399  0.00  0.00     0.062 H 
ATOM     42  H   LIG d   1       9.041  -5.455  -2.769  0.00  0.00     0.062 H 
ATOM     43  C   LIG d   1       9.882  -1.385  -7.063  0.00  0.00     0.033 A 
ATOM     44  H   LIG d   1      10.240  -0.611  -7.725  0.00  0.00     0.083 H 
ATOM     45  H   LIG d   1       7.624  -4.857  -4.660  0.00  0.00     0.062 H 
ENDBRANCH  27  30
ENDBRANCH   1  27
BRANCH  10  46
ATOM     46  C   LIG d   1       4.700  -2.191  -4.296  0.00  0.00    -0.016 A 
ATOM     47  C   LIG d   1       3.494  -1.693  -3.807  0.00  0.00    -0.053 A 
ATOM     48  C   LIG d   1       3.497  -0.677  -2.875  0.00  0.00    -0.043 A 
ATOM     49  H   LIG d   1       2.558  -2.103  -4.158  0.00  0.00     0.062 H 
ATOM     50  C   LIG d   1       4.695  -0.152  -2.423  0.00  0.00     0.041 A 
ATOM     51  H   LIG d   1       2.562  -0.290  -2.496  0.00  0.00     0.063 H 
ATOM     52  C   LIG d   1       5.896  -0.642  -2.905  0.00  0.00    -0.043 A 
ATOM     53 CL   LIG d   1       4.692   1.128  -1.250  0.00  0.00    -0.084 Cl
ATOM     54  C   LIG d   1       5.905  -1.662  -3.835  0.00  0.00    -0.053 A 
ATOM     55  H   LIG d   1       6.829  -0.229  -2.550  0.00  0.00     0.063 H 
ATOM     56  H   LIG d   1       6.842  -2.048  -4.207  0.00  0.00     0.062 H 
ENDBRANCH  10  46
TORSDOF 3
ENDMDL
