MODEL 1
REMARK VINA RESULT:      -4.6      0.000      0.000
REMARK  5 active torsions:
REMARK  status: ('A' for Active; 'I' for Inactive)
REMARK    1  A    between atoms: C_1  and  C_2 
REMARK    2  A    between atoms: C_2  and  C_3 
REMARK    3  A    between atoms: C_3  and  C_4 
REMARK    4  A    between atoms: C_4  and  C_5 
REMARK    5  A    between atoms: C_6  and  C_7 
ROOT
ATOM      1  C   LIG d   1       3.178   0.280  -2.582  0.00  0.00    -0.050 C 
ATOM      2  H   LIG d   1       2.363   0.395  -1.868  0.00  0.00     0.027 H 
ATOM      3  H   LIG d   1       3.102   1.052  -3.347  0.00  0.00     0.027 H 
ENDROOT
BRANCH   1   4
ATOM      4  C   LIG d   1       3.089  -1.099  -3.240  0.00  0.00    -0.056 C 
ATOM      5  H   LIG d   1       2.043  -1.393  -3.327  0.00  0.00     0.026 H 
ATOM      6  H   LIG d   1       3.538  -1.057  -4.232  0.00  0.00     0.026 H 
BRANCH   4   7
ATOM      7  C   LIG d   1       3.837  -2.122  -2.384  0.00  0.00    -0.065 C 
ATOM      8  H   LIG d   1       3.647  -3.125  -2.767  0.00  0.00     0.023 H 
ATOM      9  H   LIG d   1       4.907  -1.916  -2.423  0.00  0.00     0.023 H 
ATOM     10  H   LIG d   1       3.492  -2.056  -1.352  0.00  0.00     0.023 H 
ENDBRANCH   4   7
ENDBRANCH   1   4
BRANCH   1  11
ATOM     11  C   LIG d   1       4.517   0.412  -1.853  0.00  0.00    -0.034 C 
ATOM     12  H   LIG d   1       4.947  -0.578  -1.703  0.00  0.00     0.031 H 
ATOM     13  H   LIG d   1       4.359   0.892  -0.887  0.00  0.00     0.031 H 
BRANCH  11  14
ATOM     14  C   LIG d   1       5.458   1.249  -2.682  0.00  0.00    -0.082 C 
ATOM     15  C   LIG d   1       6.535   0.693  -3.230  0.00  0.00    -0.043 C 
ATOM     16  H   LIG d   1       6.735  -0.358  -3.082  0.00  0.00     0.063 H 
ATOM     17  H   LIG d   1       5.258   2.300  -2.830  0.00  0.00     0.057 H 
BRANCH  15  18
ATOM     18  C   LIG d   1       7.452   1.508  -4.039  0.00  0.00     0.064 C 
ATOM     19  O   LIG d   1       7.363   1.501  -5.251  0.00  0.00    -0.545 OA
ATOM     20  O   LIG d   1       8.392   2.264  -3.436  0.00  0.00    -0.545 OA
ENDBRANCH  15  18
ENDBRANCH  11  14
ENDBRANCH   1  11
TORSDOF 5
ENDMDL
MODEL 2
REMARK VINA RESULT:      -4.4      3.101      4.086
REMARK  5 active torsions:
REMARK  status: ('A' for Active; 'I' for Inactive)
REMARK    1  A    between atoms: C_1  and  C_2 
REMARK    2  A    between atoms: C_2  and  C_3 
REMARK    3  A    between atoms: C_3  and  C_4 
REMARK    4  A    between atoms: C_4  and  C_5 
REMARK    5  A    between atoms: C_6  and  C_7 
ROOT
ATOM      1  C   LIG d   1       3.543   1.014  -2.730  0.00  0.00    -0.050 C 
ATOM      2  H   LIG d   1       4.080   1.591  -3.483  0.00  0.00     0.027 H 
ATOM      3  H   LIG d   1       2.877   1.673  -2.174  0.00  0.00     0.027 H 
ENDROOT
BRANCH   1   4
ATOM      4  C   LIG d   1       4.546   0.373  -1.768  0.00  0.00    -0.056 C 
ATOM      5  H   LIG d   1       5.558   0.663  -2.052  0.00  0.00     0.026 H 
ATOM      6  H   LIG d   1       4.342   0.714  -0.753  0.00  0.00     0.026 H 
BRANCH   4   7
ATOM      7  C   LIG d   1       4.413  -1.149  -1.831  0.00  0.00    -0.065 C 
ATOM      8  H   LIG d   1       4.496  -1.478  -2.866  0.00  0.00     0.023 H 
ATOM      9  H   LIG d   1       5.205  -1.608  -1.240  0.00  0.00     0.023 H 
ATOM     10  H   LIG d   1       3.443  -1.447  -1.432  0.00  0.00     0.023 H 
ENDBRANCH   4   7
ENDBRANCH   1   4
BRANCH   1  11
ATOM     11  C   LIG d   1       2.723  -0.081  -3.416  0.00  0.00    -0.034 C 
ATOM     12  H   LIG d   1       1.760  -0.178  -2.916  0.00  0.00     0.031 H 
ATOM     13  H   LIG d   1       3.261  -1.027  -3.359  0.00  0.00     0.031 H 
BRANCH  11  14
ATOM     14  C   LIG d   1       2.504   0.287  -4.861  0.00  0.00    -0.082 C 
ATOM     15  C   LIG d   1       3.402  -0.062  -5.780  0.00  0.00    -0.043 C 
ATOM     16  H   LIG d   1       4.287  -0.608  -5.489  0.00  0.00     0.063 H 
ATOM     17  H   LIG d   1       1.619   0.833  -5.152  0.00  0.00     0.057 H 
BRANCH  15  18
ATOM     18  C   LIG d   1       3.189   0.296  -7.189  0.00  0.00     0.064 C 
ATOM     19  O   LIG d   1       2.268  -0.200  -7.808  0.00  0.00    -0.545 OA
ATOM     20  O   LIG d   1       4.014   1.173  -7.794  0.00  0.00    -0.545 OA
ENDBRANCH  15  18
ENDBRANCH  11  14
ENDBRANCH   1  11
TORSDOF 5
ENDMDL
MODEL 3
REMARK VINA RESULT:      -4.4      3.334      4.538
REMARK  5 active torsions:
REMARK  status: ('A' for Active; 'I' for Inactive)
REMARK    1  A    between atoms: C_1  and  C_2 
REMARK    2  A    between atoms: C_2  and  C_3 
REMARK    3  A    between atoms: C_3  and  C_4 
REMARK    4  A    between atoms: C_4  and  C_5 
REMARK    5  A    between atoms: C_6  and  C_7 
ROOT
ATOM      1  C   LIG d   1       4.527  -0.609  -1.583  0.00  0.00    -0.050 C 
ATOM      2  H   LIG d   1       4.238  -0.879  -0.568  0.00  0.00     0.027 H 
ATOM      3  H   LIG d   1       5.498  -1.047  -1.813  0.00  0.00     0.027 H 
ENDROOT
BRANCH   1   4
ATOM      4  C   LIG d   1       4.616   0.915  -1.699  0.00  0.00    -0.056 C 
ATOM      5  H   LIG d   1       4.386   1.366  -0.734  0.00  0.00     0.026 H 
ATOM      6  H   LIG d   1       5.624   1.197  -2.002  0.00  0.00     0.026 H 
BRANCH   4   7
ATOM      7  C   LIG d   1       3.613   1.406  -2.745  0.00  0.00    -0.065 C 
ATOM      8  H   LIG d   1       3.136   0.549  -3.221  0.00  0.00     0.023 H 
ATOM      9  H   LIG d   1       2.855   2.021  -2.261  0.00  0.00     0.023 H 
ATOM     10  H   LIG d   1       4.134   1.997  -3.499  0.00  0.00     0.023 H 
ENDBRANCH   4   7
ENDBRANCH   1   4
BRANCH   1  11
ATOM     11  C   LIG d   1       3.482  -1.136  -2.569  0.00  0.00    -0.034 C 
ATOM     12  H   LIG d   1       3.352  -0.417  -3.378  0.00  0.00     0.031 H 
ATOM     13  H   LIG d   1       2.534  -1.278  -2.051  0.00  0.00     0.031 H 
BRANCH  11  14
ATOM     14  C   LIG d   1       3.948  -2.452  -3.136  0.00  0.00    -0.082 C 
ATOM     15  C   LIG d   1       4.698  -2.476  -4.235  0.00  0.00    -0.043 C 
ATOM     16  H   LIG d   1       4.973  -1.550  -4.720  0.00  0.00     0.063 H 
ATOM     17  H   LIG d   1       3.673  -3.378  -2.651  0.00  0.00     0.057 H 
BRANCH  15  18
ATOM     18  C   LIG d   1       5.153  -3.758  -4.788  0.00  0.00     0.064 C 
ATOM     19  O   LIG d   1       4.364  -4.672  -4.932  0.00  0.00    -0.545 OA
ATOM     20  O   LIG d   1       6.445  -3.922  -5.137  0.00  0.00    -0.545 OA
ENDBRANCH  15  18
ENDBRANCH  11  14
ENDBRANCH   1  11
TORSDOF 5
ENDMDL
MODEL 4
REMARK VINA RESULT:      -3.8      5.099      6.110
REMARK  5 active torsions:
REMARK  status: ('A' for Active; 'I' for Inactive)
REMARK    1  A    between atoms: C_1  and  C_2 
REMARK    2  A    between atoms: C_2  and  C_3 
REMARK    3  A    between atoms: C_3  and  C_4 
REMARK    4  A    between atoms: C_4  and  C_5 
REMARK    5  A    between atoms: C_6  and  C_7 
ROOT
ATOM      1  C   LIG d   1       2.802   2.051  -8.360  0.00  0.00    -0.050 C 
ATOM      2  H   LIG d   1       1.845   2.427  -8.723  0.00  0.00     0.027 H 
ATOM      3  H   LIG d   1       3.017   2.488  -7.385  0.00  0.00     0.027 H 
ENDROOT
BRANCH   1   4
ATOM      4  C   LIG d   1       3.907   2.434  -9.346  0.00  0.00    -0.056 C 
ATOM      5  H   LIG d   1       3.762   3.464  -9.672  0.00  0.00     0.026 H 
ATOM      6  H   LIG d   1       4.877   2.341  -8.857  0.00  0.00     0.026 H 
BRANCH   4   7
ATOM      7  C   LIG d   1       3.856   1.503 -10.558  0.00  0.00    -0.065 C 
ATOM      8  H   LIG d   1       2.836   1.142 -10.696  0.00  0.00     0.023 H 
ATOM      9  H   LIG d   1       4.172   2.047 -11.448  0.00  0.00     0.023 H 
ATOM     10  H   LIG d   1       4.521   0.655 -10.394  0.00  0.00     0.023 H 
ENDBRANCH   4   7
ENDBRANCH   1   4
BRANCH   1  11
ATOM     11  C   LIG d   1       2.736   0.527  -8.233  0.00  0.00    -0.034 C 
ATOM     12  H   LIG d   1       3.395   0.074  -8.973  0.00  0.00     0.031 H 
ATOM     13  H   LIG d   1       1.713   0.193  -8.402  0.00  0.00     0.031 H 
BRANCH  11  14
ATOM     14  C   LIG d   1       3.177   0.120  -6.850  0.00  0.00    -0.082 C 
ATOM     15  C   LIG d   1       2.620   0.684  -5.781  0.00  0.00    -0.043 C 
ATOM     16  H   LIG d   1       1.852   1.433  -5.904  0.00  0.00     0.063 H 
ATOM     17  H   LIG d   1       3.944  -0.631  -6.727  0.00  0.00     0.057 H 
BRANCH  15  18
ATOM     18  C   LIG d   1       3.049   0.286  -4.433  0.00  0.00     0.064 C 
ATOM     19  O   LIG d   1       4.050   0.772  -3.945  0.00  0.00    -0.545 OA
ATOM     20  O   LIG d   1       2.330  -0.618  -3.737  0.00  0.00    -0.545 OA
ENDBRANCH  15  18
ENDBRANCH  11  14
ENDBRANCH   1  11
TORSDOF 5
ENDMDL
MODEL 5
REMARK VINA RESULT:      -3.7      2.984      3.614
REMARK  5 active torsions:
REMARK  status: ('A' for Active; 'I' for Inactive)
REMARK    1  A    between atoms: C_1  and  C_2 
REMARK    2  A    between atoms: C_2  and  C_3 
REMARK    3  A    between atoms: C_3  and  C_4 
REMARK    4  A    between atoms: C_4  and  C_5 
REMARK    5  A    between atoms: C_6  and  C_7 
ROOT
ATOM      1  C   LIG d   1       3.846  -1.399  -2.134  0.00  0.00    -0.050 C 
ATOM      2  H   LIG d   1       2.778  -1.220  -2.253  0.00  0.00     0.027 H 
ATOM      3  H   LIG d   1       4.009  -2.091  -1.308  0.00  0.00     0.027 H 
ENDROOT
BRANCH   1   4
ATOM      4  C   LIG d   1       4.555  -0.076  -1.836  0.00  0.00    -0.056 C 
ATOM      5  H   LIG d   1       4.720   0.014  -0.763  0.00  0.00     0.026 H 
ATOM      6  H   LIG d   1       5.513  -0.053  -2.355  0.00  0.00     0.026 H 
BRANCH   4   7
ATOM      7  C   LIG d   1       3.687   1.087  -2.319  0.00  0.00    -0.065 C 
ATOM      8  H   LIG d   1       3.207   0.817  -3.260  0.00  0.00     0.023 H 
ATOM      9  H   LIG d   1       2.923   1.304  -1.572  0.00  0.00     0.023 H 
ATOM     10  H   LIG d   1       4.310   1.969  -2.469  0.00  0.00     0.023 H 
ENDBRANCH   4   7
ENDBRANCH   1   4
BRANCH   1  11
ATOM     11  C   LIG d   1       4.409  -2.001  -3.423  0.00  0.00    -0.034 C 
ATOM     12  H   LIG d   1       4.067  -1.416  -4.276  0.00  0.00     0.031 H 
ATOM     13  H   LIG d   1       4.065  -3.030  -3.524  0.00  0.00     0.031 H 
BRANCH  11  14
ATOM     14  C   LIG d   1       5.916  -1.979  -3.370  0.00  0.00    -0.082 C 
ATOM     15  C   LIG d   1       6.622  -2.748  -4.196  0.00  0.00    -0.043 C 
ATOM     16  H   LIG d   1       6.115  -3.388  -4.904  0.00  0.00     0.063 H 
ATOM     17  H   LIG d   1       6.422  -1.339  -2.663  0.00  0.00     0.057 H 
BRANCH  15  18
ATOM     18  C   LIG d   1       8.090  -2.726  -4.146  0.00  0.00     0.064 C 
ATOM     19  O   LIG d   1       8.710  -1.941  -4.837  0.00  0.00    -0.545 OA
ATOM     20  O   LIG d   1       8.749  -3.575  -3.333  0.00  0.00    -0.545 OA
ENDBRANCH  15  18
ENDBRANCH  11  14
ENDBRANCH   1  11
TORSDOF 5
ENDMDL
MODEL 6
REMARK VINA RESULT:      -3.6      3.368      4.406
REMARK  5 active torsions:
REMARK  status: ('A' for Active; 'I' for Inactive)
REMARK    1  A    between atoms: C_1  and  C_2 
REMARK    2  A    between atoms: C_2  and  C_3 
REMARK    3  A    between atoms: C_3  and  C_4 
REMARK    4  A    between atoms: C_4  and  C_5 
REMARK    5  A    between atoms: C_6  and  C_7 
ROOT
ATOM      1  C   LIG d   1       4.279  -1.862  -3.072  0.00  0.00    -0.050 C 
ATOM      2  H   LIG d   1       3.586  -2.694  -3.198  0.00  0.00     0.027 H 
ATOM      3  H   LIG d   1       5.070  -2.150  -2.380  0.00  0.00     0.027 H 
ENDROOT
BRANCH   1   4
ATOM      4  C   LIG d   1       3.527  -0.653  -2.511  0.00  0.00    -0.056 C 
ATOM      5  H   LIG d   1       3.087  -0.086  -3.332  0.00  0.00     0.026 H 
ATOM      6  H   LIG d   1       2.737  -0.995  -1.843  0.00  0.00     0.026 H 
BRANCH   4   7
ATOM      7  C   LIG d   1       4.499   0.239  -1.738  0.00  0.00    -0.065 C 
ATOM      8  H   LIG d   1       4.082   1.242  -1.653  0.00  0.00     0.023 H 
ATOM      9  H   LIG d   1       4.656  -0.173  -0.741  0.00  0.00     0.023 H 
ATOM     10  H   LIG d   1       5.451   0.284  -2.267  0.00  0.00     0.023 H 
ENDBRANCH   4   7
ENDBRANCH   1   4
BRANCH   1  11
ATOM     11  C   LIG d   1       4.891  -1.499  -4.426  0.00  0.00    -0.034 C 
ATOM     12  H   LIG d   1       5.156  -2.411  -4.961  0.00  0.00     0.031 H 
ATOM     13  H   LIG d   1       5.785  -0.895  -4.270  0.00  0.00     0.031 H 
BRANCH  11  14
ATOM     14  C   LIG d   1       3.891  -0.715  -5.236  0.00  0.00    -0.082 C 
ATOM     15  C   LIG d   1       4.101  -0.505  -6.533  0.00  0.00    -0.043 C 
ATOM     16  H   LIG d   1       4.990  -0.897  -7.005  0.00  0.00     0.063 H 
ATOM     17  H   LIG d   1       3.001  -0.323  -4.763  0.00  0.00     0.057 H 
BRANCH  15  18
ATOM     18  C   LIG d   1       3.125   0.258  -7.322  0.00  0.00     0.064 C 
ATOM     19  O   LIG d   1       3.138   1.473  -7.295  0.00  0.00    -0.545 OA
ATOM     20  O   LIG d   1       2.216  -0.390  -8.078  0.00  0.00    -0.545 OA
ENDBRANCH  15  18
ENDBRANCH  11  14
ENDBRANCH   1  11
TORSDOF 5
ENDMDL
MODEL 7
REMARK VINA RESULT:      -3.4      3.221      4.032
REMARK  5 active torsions:
REMARK  status: ('A' for Active; 'I' for Inactive)
REMARK    1  A    between atoms: C_1  and  C_2 
REMARK    2  A    between atoms: C_2  and  C_3 
REMARK    3  A    between atoms: C_3  and  C_4 
REMARK    4  A    between atoms: C_4  and  C_5 
REMARK    5  A    between atoms: C_6  and  C_7 
ROOT
ATOM      1  C   LIG d   1       7.169  -2.053  -3.665  0.00  0.00    -0.050 C 
ATOM      2  H   LIG d   1       7.297  -1.227  -4.366  0.00  0.00     0.027 H 
ATOM      3  H   LIG d   1       7.607  -1.784  -2.704  0.00  0.00     0.027 H 
ENDROOT
BRANCH   1   4
ATOM      4  C   LIG d   1       7.868  -3.299  -4.213  0.00  0.00    -0.056 C 
ATOM      5  H   LIG d   1       8.743  -3.000  -4.790  0.00  0.00     0.026 H 
ATOM      6  H   LIG d   1       8.180  -3.934  -3.383  0.00  0.00     0.026 H 
BRANCH   4   7
ATOM      7  C   LIG d   1       6.903  -4.072  -5.112  0.00  0.00    -0.065 C 
ATOM      8  H   LIG d   1       5.903  -4.045  -4.679  0.00  0.00     0.023 H 
ATOM      9  H   LIG d   1       6.882  -3.615  -6.101  0.00  0.00     0.023 H 
ATOM     10  H   LIG d   1       7.234  -5.108  -5.196  0.00  0.00     0.023 H 
ENDBRANCH   4   7
ENDBRANCH   1   4
BRANCH   1  11
ATOM     11  C   LIG d   1       5.678  -2.342  -3.484  0.00  0.00    -0.034 C 
ATOM     12  H   LIG d   1       5.554  -3.252  -2.899  0.00  0.00     0.031 H 
ATOM     13  H   LIG d   1       5.212  -2.470  -4.461  0.00  0.00     0.031 H 
BRANCH  11  14
ATOM     14  C   LIG d   1       5.027  -1.189  -2.765  0.00  0.00    -0.082 C 
ATOM     15  C   LIG d   1       5.189   0.053  -3.214  0.00  0.00    -0.043 C 
ATOM     16  H   LIG d   1       5.787   0.235  -4.095  0.00  0.00     0.063 H 
ATOM     17  H   LIG d   1       4.428  -1.370  -1.884  0.00  0.00     0.057 H 
BRANCH  15  18
ATOM     18  C   LIG d   1       4.554   1.178  -2.513  0.00  0.00     0.064 C 
ATOM     19  O   LIG d   1       4.694   1.303  -1.313  0.00  0.00    -0.545 OA
ATOM     20  O   LIG d   1       3.816   2.071  -3.203  0.00  0.00    -0.545 OA
ENDBRANCH  15  18
ENDBRANCH  11  14
ENDBRANCH   1  11
TORSDOF 5
ENDMDL
MODEL 8
REMARK VINA RESULT:      -3.2      4.551      5.332
REMARK  5 active torsions:
REMARK  status: ('A' for Active; 'I' for Inactive)
REMARK    1  A    between atoms: C_1  and  C_2 
REMARK    2  A    between atoms: C_2  and  C_3 
REMARK    3  A    between atoms: C_3  and  C_4 
REMARK    4  A    between atoms: C_4  and  C_5 
REMARK    5  A    between atoms: C_6  and  C_7 
ROOT
ATOM      1  C   LIG d   1       4.087  -0.504  -5.146  0.00  0.00    -0.050 C 
ATOM      2  H   LIG d   1       4.476  -1.182  -5.905  0.00  0.00     0.027 H 
ATOM      3  H   LIG d   1       4.845   0.239  -4.899  0.00  0.00     0.027 H 
ENDROOT
BRANCH   1   4
ATOM      4  C   LIG d   1       3.725  -1.298  -3.889  0.00  0.00    -0.056 C 
ATOM      5  H   LIG d   1       3.460  -2.318  -4.168  0.00  0.00     0.026 H 
ATOM      6  H   LIG d   1       4.580  -1.317  -3.213  0.00  0.00     0.026 H 
BRANCH   4   7
ATOM      7  C   LIG d   1       2.537  -0.636  -3.190  0.00  0.00    -0.065 C 
ATOM      8  H   LIG d   1       2.740  -0.559  -2.122  0.00  0.00     0.023 H 
ATOM      9  H   LIG d   1       2.383   0.362  -3.602  0.00  0.00     0.023 H 
ATOM     10  H   LIG d   1       1.641  -1.236  -3.347  0.00  0.00     0.023 H 
ENDBRANCH   4   7
ENDBRANCH   1   4
BRANCH   1  11
ATOM     11  C   LIG d   1       2.838   0.199  -5.682  0.00  0.00    -0.034 C 
ATOM     12  H   LIG d   1       2.836   1.237  -5.350  0.00  0.00     0.031 H 
ATOM     13  H   LIG d   1       1.948  -0.306  -5.308  0.00  0.00     0.031 H 
BRANCH  11  14
ATOM     14  C   LIG d   1       2.845   0.154  -7.189  0.00  0.00    -0.082 C 
ATOM     15  C   LIG d   1       3.006   1.275  -7.888  0.00  0.00    -0.043 C 
ATOM     16  H   LIG d   1       3.132   2.218  -7.374  0.00  0.00     0.063 H 
ATOM     17  H   LIG d   1       2.720  -0.788  -7.702  0.00  0.00     0.057 H 
BRANCH  15  18
ATOM     18  C   LIG d   1       3.014   1.231  -9.356  0.00  0.00     0.064 C 
ATOM     19  O   LIG d   1       2.544   0.274  -9.938  0.00  0.00    -0.545 OA
ATOM     20  O   LIG d   1       3.542   2.254 -10.058  0.00  0.00    -0.545 OA
ENDBRANCH  15  18
ENDBRANCH  11  14
ENDBRANCH   1  11
TORSDOF 5
ENDMDL
MODEL 9
REMARK VINA RESULT:      -3.0      7.487      8.206
REMARK  5 active torsions:
REMARK  status: ('A' for Active; 'I' for Inactive)
REMARK    1  A    between atoms: C_1  and  C_2 
REMARK    2  A    between atoms: C_2  and  C_3 
REMARK    3  A    between atoms: C_3  and  C_4 
REMARK    4  A    between atoms: C_4  and  C_5 
REMARK    5  A    between atoms: C_6  and  C_7 
ROOT
ATOM      1  C   LIG d   1       9.569   6.447  -3.180  0.00  0.00    -0.050 C 
ATOM      2  H   LIG d   1       8.747   6.767  -2.539  0.00  0.00     0.027 H 
ATOM      3  H   LIG d   1      10.413   7.125  -3.053  0.00  0.00     0.027 H 
ENDROOT
BRANCH   1   4
ATOM      4  C   LIG d   1       9.115   6.467  -4.641  0.00  0.00    -0.056 C 
ATOM      5  H   LIG d   1       8.026   6.467  -4.682  0.00  0.00     0.026 H 
ATOM      6  H   LIG d   1       9.497   7.364  -5.127  0.00  0.00     0.026 H 
BRANCH   4   7
ATOM      7  C   LIG d   1       9.653   5.229  -5.359  0.00  0.00    -0.065 C 
ATOM      8  H   LIG d   1       9.574   5.371  -6.437  0.00  0.00     0.023 H 
ATOM      9  H   LIG d   1      10.698   5.077  -5.089  0.00  0.00     0.023 H 
ATOM     10  H   LIG d   1       9.071   4.355  -5.065  0.00  0.00     0.023 H 
ENDBRANCH   4   7
ENDBRANCH   1   4
BRANCH   1  11
ATOM     11  C   LIG d   1       9.993   5.028  -2.796  0.00  0.00    -0.034 C 
ATOM     12  H   LIG d   1      10.614   4.609  -3.587  0.00  0.00     0.031 H 
ATOM     13  H   LIG d   1       9.106   4.408  -2.662  0.00  0.00     0.031 H 
BRANCH  11  14
ATOM     14  C   LIG d   1      10.776   5.069  -1.509  0.00  0.00    -0.082 C 
ATOM     15  C   LIG d   1      10.535   6.022  -0.613  0.00  0.00    -0.043 C 
ATOM     16  H   LIG d   1       9.776   6.767  -0.808  0.00  0.00     0.063 H 
ATOM     17  H   LIG d   1      11.533   4.323  -1.313  0.00  0.00     0.057 H 
BRANCH  15  18
ATOM     18  C   LIG d   1      11.297   6.062   0.642  0.00  0.00     0.064 C 
ATOM     19  O   LIG d   1      12.447   6.456   0.643  0.00  0.00    -0.545 OA
ATOM     20  O   LIG d   1      10.721   5.662   1.794  0.00  0.00    -0.545 OA
ENDBRANCH  15  18
ENDBRANCH  11  14
ENDBRANCH   1  11
TORSDOF 5
ENDMDL
MODEL 10
REMARK VINA RESULT:      -2.9      3.791      4.393
REMARK  5 active torsions:
REMARK  status: ('A' for Active; 'I' for Inactive)
REMARK    1  A    between atoms: C_1  and  C_2 
REMARK    2  A    between atoms: C_2  and  C_3 
REMARK    3  A    between atoms: C_3  and  C_4 
REMARK    4  A    between atoms: C_4  and  C_5 
REMARK    5  A    between atoms: C_6  and  C_7 
ROOT
ATOM      1  C   LIG d   1       4.765  -2.103  -3.981  0.00  0.00    -0.050 C 
ATOM      2  H   LIG d   1       5.757  -1.693  -3.788  0.00  0.00     0.027 H 
ATOM      3  H   LIG d   1       4.246  -1.473  -4.703  0.00  0.00     0.027 H 
ENDROOT
BRANCH   1   4
ATOM      4  C   LIG d   1       3.968  -2.148  -2.676  0.00  0.00    -0.056 C 
ATOM      5  H   LIG d   1       2.903  -2.095  -2.899  0.00  0.00     0.026 H 
ATOM      6  H   LIG d   1       4.184  -3.078  -2.151  0.00  0.00     0.026 H 
BRANCH   4   7
ATOM      7  C   LIG d   1       4.365  -0.962  -1.795  0.00  0.00    -0.065 C 
ATOM      8  H   LIG d   1       3.976  -1.111  -0.788  0.00  0.00     0.023 H 
ATOM      9  H   LIG d   1       5.452  -0.886  -1.756  0.00  0.00     0.023 H 
ATOM     10  H   LIG d   1       3.952  -0.044  -2.213  0.00  0.00     0.023 H 
ENDBRANCH   4   7
ENDBRANCH   1   4
BRANCH   1  11
ATOM     11  C   LIG d   1       4.901  -3.519  -4.545  0.00  0.00    -0.034 C 
ATOM     12  H   LIG d   1       4.250  -3.628  -5.412  0.00  0.00     0.031 H 
ATOM     13  H   LIG d   1       4.615  -4.243  -3.782  0.00  0.00     0.031 H 
BRANCH  11  14
ATOM     14  C   LIG d   1       6.331  -3.761  -4.956  0.00  0.00    -0.082 C 
ATOM     15  C   LIG d   1       7.321  -3.152  -4.309  0.00  0.00    -0.043 C 
ATOM     16  H   LIG d   1       7.100  -2.485  -3.488  0.00  0.00     0.063 H 
ATOM     17  H   LIG d   1       6.552  -4.429  -5.776  0.00  0.00     0.057 H 
BRANCH  15  18
ATOM     18  C   LIG d   1       8.715  -3.388  -4.708  0.00  0.00     0.064 C 
ATOM     19  O   LIG d   1       9.002  -3.485  -5.885  0.00  0.00    -0.545 OA
ATOM     20  O   LIG d   1       9.676  -3.497  -3.769  0.00  0.00    -0.545 OA
ENDBRANCH  15  18
ENDBRANCH  11  14
ENDBRANCH   1  11
TORSDOF 5
ENDMDL
