MODEL 1
REMARK VINA RESULT:      -6.1      0.000      0.000
REMARK  16 active torsions:
REMARK  status: ('A' for Active; 'I' for Inactive)
REMARK    1  A    between atoms: C_1  and  C_2 
REMARK    2  A    between atoms: C_2  and  C_3 
REMARK    3  A    between atoms: C_2  and  C_4 
REMARK    4  A    between atoms: C_2  and  O_40 
REMARK    5  A    between atoms: C_4  and  C_5 
REMARK    6  A    between atoms: C_5  and  C_6 
REMARK    7  A    between atoms: C_6  and  C_7 
REMARK    8  A    between atoms: C_6  and  C_12 
REMARK    9  A    between atoms: C_6  and  O_39 
REMARK   10  A    between atoms: C_7  and  C_8 
REMARK   11  A    between atoms: C_8  and  O_10 
REMARK   12  A    between atoms: O_10  and  C_11 
REMARK   13  A    between atoms: C_12  and  O_14 
REMARK   14  A    between atoms: O_14  and  C_15 
REMARK   15  A    between atoms: C_33  and  O_34 
REMARK   16  A    between atoms: O_34  and  C_35 
ROOT
ATOM      1  C   LIG d   1       5.944  -1.967  -5.632  0.00  0.00     0.172 C 
ATOM      2  H   LIG d   1       6.562  -2.230  -6.503  0.00  0.00     0.083 H 
ATOM      3  C   LIG d   1       5.619  -0.462  -5.469  0.00  0.00     0.078 C 
ATOM      4  H   LIG d   1       6.344   0.347  -5.645  0.00  0.00     0.045 H 
ATOM      5  C   LIG d   1       4.790   0.056  -6.570  0.00  0.00    -0.027 A 
ATOM      6  C   LIG d   1       5.542   0.542  -7.661  0.00  0.00    -0.012 A 
ATOM      7  C   LIG d   1       4.898   0.837  -8.843  0.00  0.00     0.167 A 
ATOM      8  C   LIG d   1       3.510   0.664  -8.961  0.00  0.00     0.167 A 
ATOM      9  C   LIG d   1       2.768   0.248  -7.875  0.00  0.00    -0.013 A 
ATOM     10  C   LIG d   1       3.428  -0.016  -6.663  0.00  0.00    -0.035 A 
ATOM     11  C   LIG d   1       2.512  -0.349  -5.528  0.00  0.00     0.013 C 
ATOM     12  C   LIG d   1       2.961   0.187  -4.211  0.00  0.00    -0.027 C 
ATOM     13  N   LIG d   1       3.979  -0.578  -3.530  0.00  0.00     0.243 N 
ATOM     14  C   LIG d   1       5.339  -0.351  -4.014  0.00  0.00     0.023 C 
ATOM     15  C   LIG d   1       5.731   1.014  -3.407  0.00  0.00     0.003 C 
ATOM     16  C   LIG d   1       5.110   0.924  -1.989  0.00  0.00    -0.007 C 
ATOM     17  C   LIG d   1       4.015  -0.156  -2.099  0.00  0.00    -0.031 C 
ATOM     18  C   LIG d   1       6.234  -1.419  -3.384  0.00  0.00     0.009 C 
ATOM     19  C   LIG d   1       6.570  -2.315  -4.292  0.00  0.00     0.140 C 
ATOM     20  O   LIG d   1       3.136   0.975 -10.223  0.00  0.00    -0.453 OA
ATOM     21  C   LIG d   1       4.354   0.989 -10.996  0.00  0.00     0.233 C 
ATOM     22  O   LIG d   1       5.382   1.280 -10.026  0.00  0.00    -0.453 OA
ATOM     23  H   LIG d   1       6.610   0.682  -7.569  0.00  0.00     0.066 H 
ATOM     24  H   LIG d   1       1.697   0.127  -7.955  0.00  0.00     0.066 H 
ATOM     25  H   LIG d   1       1.514   0.070  -5.728  0.00  0.00     0.036 H 
ATOM     26  H   LIG d   1       2.436  -1.443  -5.427  0.00  0.00     0.036 H 
ATOM     27  H   LIG d   1       3.379   1.195  -4.348  0.00  0.00     0.082 H 
ATOM     28  H   LIG d   1       2.104   0.237  -3.523  0.00  0.00     0.082 H 
ATOM     29  H   LIG d   1       6.826   1.107  -3.393  0.00  0.00     0.033 H 
ATOM     30  H   LIG d   1       5.301   1.823  -4.016  0.00  0.00     0.033 H 
ATOM     31  H   LIG d   1       5.889   0.640  -1.266  0.00  0.00     0.032 H 
ATOM     32  H   LIG d   1       4.690   1.901  -1.711  0.00  0.00     0.032 H 
ATOM     33  H   LIG d   1       3.034   0.249  -1.811  0.00  0.00     0.082 H 
ATOM     34  H   LIG d   1       4.253  -1.024  -1.466  0.00  0.00     0.082 H 
ATOM     35  H   LIG d   1       6.601  -1.519  -2.351  0.00  0.00     0.067 H 
ATOM     36  H   LIG d   1       4.498   0.007 -11.471  0.00  0.00     0.117 H 
ATOM     37  H   LIG d   1       4.286   1.765 -11.773  0.00  0.00     0.117 H 
ATOM     38  H   LIG d   1       3.698  -1.624  -3.726  0.00  0.00     0.204 HD
ENDROOT
BRANCH   1  39
ATOM     39  O   LIG d   1       4.731  -2.735  -5.850  0.00  0.00    -0.451 OA
BRANCH  39  40
ATOM     40  C   LIG d   1       4.676  -3.484  -6.963  0.00  0.00     0.340 C 
ATOM     41  O   LIG d   1       4.836  -2.969  -8.045  0.00  0.00    -0.248 OA
BRANCH  40  42
ATOM     42  C   LIG d   1       4.414  -4.964  -6.864  0.00  0.00     0.172 C 
BRANCH  42  43
ATOM     43  C   LIG d   1       5.334  -5.575  -5.806  0.00  0.00    -0.010 C 
ATOM     44  H   LIG d   1       5.304  -4.960  -4.894  0.00  0.00     0.030 H 
ATOM     45  H   LIG d   1       6.364  -5.610  -6.191  0.00  0.00     0.030 H 
BRANCH  43  46
ATOM     46  C   LIG d   1       4.865  -6.994  -5.479  0.00  0.00    -0.021 C 
ATOM     47  H   LIG d   1       4.138  -7.323  -6.236  0.00  0.00     0.029 H 
ATOM     48  H   LIG d   1       4.389  -7.003  -4.486  0.00  0.00     0.029 H 
BRANCH  46  49
ATOM     49  C   LIG d   1       6.066  -7.941  -5.477  0.00  0.00     0.061 C 
BRANCH  49  50
ATOM     50  C   LIG d   1       6.138  -8.677  -6.815  0.00  0.00    -0.036 C 
ATOM     51  H   LIG d   1       6.810  -9.543  -6.724  0.00  0.00     0.026 H 
ATOM     52  H   LIG d   1       6.521  -7.995  -7.589  0.00  0.00     0.026 H 
ATOM     53  H   LIG d   1       5.132  -9.023  -7.098  0.00  0.00     0.026 H 
ENDBRANCH  49  50
BRANCH  49  54
ATOM     54  C   LIG d   1       7.351  -7.137  -5.267  0.00  0.00    -0.036 C 
ATOM     55  H   LIG d   1       8.192  -7.656  -5.747  0.00  0.00     0.026 H 
ATOM     56  H   LIG d   1       7.549  -7.038  -4.189  0.00  0.00     0.026 H 
ATOM     57  H   LIG d   1       7.234  -6.137  -5.711  0.00  0.00     0.026 H 
ENDBRANCH  49  54
BRANCH  49  58
ATOM     58  O   LIG d   1       5.921  -8.891  -4.419  0.00  0.00    -0.389 OA
ATOM     59  H   LIG d   1       5.370  -9.829  -4.593  0.00  0.00     0.210 HD
ENDBRANCH  49  58
ENDBRANCH  46  49
ENDBRANCH  43  46
ENDBRANCH  42  43
BRANCH  42  60
ATOM     60  C   LIG d   1       4.686  -5.622  -8.218  0.00  0.00     0.084 C 
ATOM     61  H   LIG d   1       5.116  -4.881  -8.906  0.00  0.00     0.041 H 
ATOM     62  H   LIG d   1       5.395  -6.454  -8.086  0.00  0.00     0.041 H 
BRANCH  60  63
ATOM     63  C   LIG d   1       3.395  -6.151  -8.789  0.00  0.00     0.310 C 
ATOM     64  O   LIG d   1       3.098  -7.311  -8.636  0.00  0.00    -0.251 OA
BRANCH  63  65
ATOM     65  O   LIG d   1       2.576  -5.331  -9.466  0.00  0.00    -0.468 OA
BRANCH  65  66
ATOM     66  C   LIG d   1       1.593  -5.954 -10.336  0.00  0.00     0.082 C 
ATOM     67  H   LIG d   1       2.062  -6.202 -11.299  0.00  0.00     0.066 H 
ATOM     68  H   LIG d   1       0.758  -5.257 -10.503  0.00  0.00     0.066 H 
ATOM     69  H   LIG d   1       1.216  -6.873  -9.864  0.00  0.00     0.066 H 
ENDBRANCH  65  66
ENDBRANCH  63  65
ENDBRANCH  60  63
ENDBRANCH  42  60
BRANCH  42  70
ATOM     70  O   LIG d   1       3.051  -5.182  -6.494  0.00  0.00    -0.377 OA
ATOM     71  H   LIG d   1       2.582  -4.553  -5.723  0.00  0.00     0.211 HD
ENDBRANCH  42  70
ENDBRANCH  40  42
ENDBRANCH  39  40
ENDBRANCH   1  39
BRANCH  19  72
ATOM     72  O   LIG d   1       7.360  -3.393  -4.061  0.00  0.00    -0.496 OA
BRANCH  72  73
ATOM     73  C   LIG d   1       8.495  -3.561  -4.913  0.00  0.00     0.079 C 
ATOM     74  H   LIG d   1       8.241  -3.234  -5.931  0.00  0.00     0.066 H 
ATOM     75  H   LIG d   1       8.786  -4.622  -4.931  0.00  0.00     0.066 H 
ATOM     76  H   LIG d   1       9.332  -2.958  -4.531  0.00  0.00     0.066 H 
ENDBRANCH  72  73
ENDBRANCH  19  72
TORSDOF 16
ENDMDL
MODEL 2
REMARK VINA RESULT:      -6.1      1.981      5.291
REMARK  16 active torsions:
REMARK  status: ('A' for Active; 'I' for Inactive)
REMARK    1  A    between atoms: C_1  and  C_2 
REMARK    2  A    between atoms: C_2  and  C_3 
REMARK    3  A    between atoms: C_2  and  C_4 
REMARK    4  A    between atoms: C_2  and  O_40 
REMARK    5  A    between atoms: C_4  and  C_5 
REMARK    6  A    between atoms: C_5  and  C_6 
REMARK    7  A    between atoms: C_6  and  C_7 
REMARK    8  A    between atoms: C_6  and  C_12 
REMARK    9  A    between atoms: C_6  and  O_39 
REMARK   10  A    between atoms: C_7  and  C_8 
REMARK   11  A    between atoms: C_8  and  O_10 
REMARK   12  A    between atoms: O_10  and  C_11 
REMARK   13  A    between atoms: C_12  and  O_14 
REMARK   14  A    between atoms: O_14  and  C_15 
REMARK   15  A    between atoms: C_33  and  O_34 
REMARK   16  A    between atoms: O_34  and  C_35 
ROOT
ATOM      1  C   LIG d   1       2.909  -1.790  -8.077  0.00  0.00     0.172 C 
ATOM      2  H   LIG d   1       2.330  -2.448  -7.413  0.00  0.00     0.083 H 
ATOM      3  C   LIG d   1       3.143  -0.350  -7.559  0.00  0.00     0.078 C 
ATOM      4  H   LIG d   1       2.380   0.251  -7.043  0.00  0.00     0.045 H 
ATOM      5  C   LIG d   1       3.972  -0.321  -6.341  0.00  0.00    -0.027 A 
ATOM      6  C   LIG d   1       3.224  -0.414  -5.148  0.00  0.00    -0.012 A 
ATOM      7  C   LIG d   1       3.882  -0.631  -3.958  0.00  0.00     0.167 A 
ATOM      8  C   LIG d   1       5.280  -0.751  -3.928  0.00  0.00     0.167 A 
ATOM      9  C   LIG d   1       6.015  -0.598  -5.085  0.00  0.00    -0.013 A 
ATOM     10  C   LIG d   1       5.338  -0.340  -6.290  0.00  0.00    -0.035 A 
ATOM     11  C   LIG d   1       6.240  -0.081  -7.454  0.00  0.00     0.013 C 
ATOM     12  C   LIG d   1       5.725   0.952  -8.399  0.00  0.00    -0.027 C 
ATOM     13  N   LIG d   1       4.735   0.504  -9.348  0.00  0.00     0.243 N 
ATOM     14  C   LIG d   1       3.378   0.409  -8.814  0.00  0.00     0.023 C 
ATOM     15  C   LIG d   1       2.893   1.875  -8.756  0.00  0.00     0.003 C 
ATOM     16  C   LIG d   1       3.479   2.458 -10.066  0.00  0.00    -0.007 C 
ATOM     17  C   LIG d   1       4.636   1.511 -10.445  0.00  0.00    -0.031 C 
ATOM     18  C   LIG d   1       2.527  -0.325  -9.851  0.00  0.00     0.009 C 
ATOM     19  C   LIG d   1       2.267  -1.549  -9.434  0.00  0.00     0.140 C 
ATOM     20  O   LIG d   1       5.670  -1.006  -2.658  0.00  0.00    -0.453 OA
ATOM     21  C   LIG d   1       4.475  -1.411  -1.959  0.00  0.00     0.233 C 
ATOM     22  O   LIG d   1       3.406  -0.787  -2.701  0.00  0.00    -0.453 OA
ATOM     23  H   LIG d   1       2.148  -0.314  -5.169  0.00  0.00     0.066 H 
ATOM     24  H   LIG d   1       7.093  -0.675  -5.066  0.00  0.00     0.066 H 
ATOM     25  H   LIG d   1       7.218   0.268  -7.089  0.00  0.00     0.036 H 
ATOM     26  H   LIG d   1       6.374  -1.011  -8.028  0.00  0.00     0.036 H 
ATOM     27  H   LIG d   1       5.255   1.768  -7.830  0.00  0.00     0.082 H 
ATOM     28  H   LIG d   1       6.560   1.354  -8.994  0.00  0.00     0.082 H 
ATOM     29  H   LIG d   1       1.794   1.896  -8.728  0.00  0.00     0.033 H 
ATOM     30  H   LIG d   1       3.293   2.357  -7.852  0.00  0.00     0.033 H 
ATOM     31  H   LIG d   1       2.698   2.474 -10.841  0.00  0.00     0.032 H 
ATOM     32  H   LIG d   1       3.836   3.482  -9.884  0.00  0.00     0.032 H 
ATOM     33  H   LIG d   1       5.585   2.062 -10.524  0.00  0.00     0.082 H 
ATOM     34  H   LIG d   1       4.430   0.998 -11.396  0.00  0.00     0.082 H 
ATOM     35  H   LIG d   1       2.139   0.018 -10.822  0.00  0.00     0.067 H 
ATOM     36  H   LIG d   1       4.400  -2.508  -1.967  0.00  0.00     0.117 H 
ATOM     37  H   LIG d   1       4.520  -1.055  -0.919  0.00  0.00     0.117 H 
ATOM     38  H   LIG d   1       5.079  -0.501  -9.634  0.00  0.00     0.204 HD
ENDROOT
BRANCH   1  39
ATOM     39  O   LIG d   1       4.168  -2.498  -8.221  0.00  0.00    -0.451 OA
BRANCH  39  40
ATOM     40  C   LIG d   1       4.108  -3.837  -8.301  0.00  0.00     0.340 C 
ATOM     41  O   LIG d   1       3.847  -4.367  -9.355  0.00  0.00    -0.248 OA
BRANCH  40  42
ATOM     42  C   LIG d   1       4.366  -4.677  -7.077  0.00  0.00     0.172 C 
BRANCH  42  43
ATOM     43  C   LIG d   1       5.167  -3.863  -6.060  0.00  0.00    -0.010 C 
ATOM     44  H   LIG d   1       4.477  -3.300  -5.415  0.00  0.00     0.030 H 
ATOM     45  H   LIG d   1       5.829  -3.162  -6.589  0.00  0.00     0.030 H 
BRANCH  43  46
ATOM     46  C   LIG d   1       6.010  -4.808  -5.201  0.00  0.00    -0.021 C 
ATOM     47  H   LIG d   1       6.042  -5.801  -5.672  0.00  0.00     0.029 H 
ATOM     48  H   LIG d   1       5.560  -4.892  -4.200  0.00  0.00     0.029 H 
BRANCH  46  49
ATOM     49  C   LIG d   1       7.431  -4.254  -5.076  0.00  0.00     0.061 C 
BRANCH  49  50
ATOM     50  C   LIG d   1       8.412  -5.409  -4.871  0.00  0.00    -0.036 C 
ATOM     51  H   LIG d   1       8.510  -5.978  -5.807  0.00  0.00     0.026 H 
ATOM     52  H   LIG d   1       8.039  -6.070  -4.076  0.00  0.00     0.026 H 
ATOM     53  H   LIG d   1       9.395  -5.007  -4.582  0.00  0.00     0.026 H 
ENDBRANCH  49  50
BRANCH  49  54
ATOM     54  C   LIG d   1       7.796  -3.493  -6.353  0.00  0.00    -0.036 C 
ATOM     55  H   LIG d   1       7.557  -2.428  -6.225  0.00  0.00     0.026 H 
ATOM     56  H   LIG d   1       7.220  -3.899  -7.198  0.00  0.00     0.026 H 
ATOM     57  H   LIG d   1       8.871  -3.608  -6.553  0.00  0.00     0.026 H 
ENDBRANCH  49  54
BRANCH  49  58
ATOM     58  O   LIG d   1       7.499  -3.367  -3.957  0.00  0.00    -0.389 OA
ATOM     59  H   LIG d   1       7.502  -3.773  -2.933  0.00  0.00     0.210 HD
ENDBRANCH  49  58
ENDBRANCH  46  49
ENDBRANCH  43  46
ENDBRANCH  42  43
BRANCH  42  60
ATOM     60  C   LIG d   1       5.161  -5.923  -7.473  0.00  0.00     0.084 C 
ATOM     61  H   LIG d   1       5.473  -5.841  -8.524  0.00  0.00     0.041 H 
ATOM     62  H   LIG d   1       6.052  -6.008  -6.833  0.00  0.00     0.041 H 
BRANCH  60  63
ATOM     63  C   LIG d   1       4.299  -7.146  -7.298  0.00  0.00     0.310 C 
ATOM     64  O   LIG d   1       3.623  -7.544  -8.217  0.00  0.00    -0.251 OA
BRANCH  63  65
ATOM     65  O   LIG d   1       4.284  -7.795  -6.123  0.00  0.00    -0.468 OA
BRANCH  65  66
ATOM     66  C   LIG d   1       4.808  -9.150  -6.111  0.00  0.00     0.082 C 
ATOM     67  H   LIG d   1       5.098  -9.439  -7.132  0.00  0.00     0.066 H 
ATOM     68  H   LIG d   1       4.034  -9.838  -5.740  0.00  0.00     0.066 H 
ATOM     69  H   LIG d   1       5.687  -9.196  -5.453  0.00  0.00     0.066 H 
ENDBRANCH  65  66
ENDBRANCH  63  65
ENDBRANCH  60  63
ENDBRANCH  42  60
BRANCH  42  70
ATOM     70  O   LIG d   1       3.120  -5.071  -6.499  0.00  0.00    -0.377 OA
ATOM     71  H   LIG d   1       2.669  -6.037  -6.769  0.00  0.00     0.211 HD
ENDBRANCH  42  70
ENDBRANCH  40  42
ENDBRANCH  39  40
ENDBRANCH   1  39
BRANCH  19  72
ATOM     72  O   LIG d   1       1.533  -2.462 -10.118  0.00  0.00    -0.496 OA
BRANCH  72  73
ATOM     73  C   LIG d   1       1.282  -2.191 -11.499  0.00  0.00     0.079 C 
ATOM     74  H   LIG d   1       0.799  -3.063 -11.962  0.00  0.00     0.066 H 
ATOM     75  H   LIG d   1       2.234  -1.983 -12.010  0.00  0.00     0.066 H 
ATOM     76  H   LIG d   1       0.621  -1.316 -11.586  0.00  0.00     0.066 H 
ENDBRANCH  72  73
ENDBRANCH  19  72
TORSDOF 16
ENDMDL
MODEL 3
REMARK VINA RESULT:      -6.0      2.125      6.896
REMARK  16 active torsions:
REMARK  status: ('A' for Active; 'I' for Inactive)
REMARK    1  A    between atoms: C_1  and  C_2 
REMARK    2  A    between atoms: C_2  and  C_3 
REMARK    3  A    between atoms: C_2  and  C_4 
REMARK    4  A    between atoms: C_2  and  O_40 
REMARK    5  A    between atoms: C_4  and  C_5 
REMARK    6  A    between atoms: C_5  and  C_6 
REMARK    7  A    between atoms: C_6  and  C_7 
REMARK    8  A    between atoms: C_6  and  C_12 
REMARK    9  A    between atoms: C_6  and  O_39 
REMARK   10  A    between atoms: C_7  and  C_8 
REMARK   11  A    between atoms: C_8  and  O_10 
REMARK   12  A    between atoms: O_10  and  C_11 
REMARK   13  A    between atoms: C_12  and  O_14 
REMARK   14  A    between atoms: O_14  and  C_15 
REMARK   15  A    between atoms: C_33  and  O_34 
REMARK   16  A    between atoms: O_34  and  C_35 
ROOT
ATOM      1  C   LIG d   1       4.422  -1.523  -6.335  0.00  0.00     0.172 C 
ATOM      2  H   LIG d   1       3.974  -2.112  -7.148  0.00  0.00     0.083 H 
ATOM      3  C   LIG d   1       4.535  -2.241  -4.967  0.00  0.00     0.078 C 
ATOM      4  H   LIG d   1       3.752  -2.888  -4.545  0.00  0.00     0.045 H 
ATOM      5  C   LIG d   1       5.447  -3.396  -5.014  0.00  0.00    -0.027 A 
ATOM      6  C   LIG d   1       4.810  -4.604  -5.370  0.00  0.00    -0.012 A 
ATOM      7  C   LIG d   1       5.579  -5.706  -5.675  0.00  0.00     0.167 A 
ATOM      8  C   LIG d   1       6.980  -5.632  -5.628  0.00  0.00     0.167 A 
ATOM      9  C   LIG d   1       7.601  -4.470  -5.220  0.00  0.00    -0.013 A 
ATOM     10  C   LIG d   1       6.807  -3.362  -4.875  0.00  0.00    -0.035 A 
ATOM     11  C   LIG d   1       7.581  -2.199  -4.342  0.00  0.00     0.013 C 
ATOM     12  C   LIG d   1       6.882  -1.456  -3.253  0.00  0.00    -0.027 C 
ATOM     13  N   LIG d   1       5.876  -0.510  -3.676  0.00  0.00     0.243 N 
ATOM     14  C   LIG d   1       4.584  -1.105  -4.012  0.00  0.00     0.023 C 
ATOM     15  C   LIG d   1       3.946  -1.416  -2.640  0.00  0.00     0.003 C 
ATOM     16  C   LIG d   1       4.359  -0.177  -1.806  0.00  0.00    -0.007 C 
ATOM     17  C   LIG d   1       5.581   0.411  -2.540  0.00  0.00    -0.031 C 
ATOM     18  C   LIG d   1       3.742  -0.021  -4.686  0.00  0.00     0.009 C 
ATOM     19  C   LIG d   1       3.653  -0.261  -5.980  0.00  0.00     0.140 C 
ATOM     20  O   LIG d   1       7.494  -6.822  -6.014  0.00  0.00    -0.453 OA
ATOM     21  C   LIG d   1       6.409  -7.522  -6.659  0.00  0.00     0.233 C 
ATOM     22  O   LIG d   1       5.223  -6.950  -6.069  0.00  0.00    -0.453 OA
ATOM     23  H   LIG d   1       3.731  -4.664  -5.400  0.00  0.00     0.066 H 
ATOM     24  H   LIG d   1       8.678  -4.411  -5.167  0.00  0.00     0.066 H 
ATOM     25  H   LIG d   1       8.539  -2.553  -3.933  0.00  0.00     0.036 H 
ATOM     26  H   LIG d   1       7.773  -1.482  -5.155  0.00  0.00     0.036 H 
ATOM     27  H   LIG d   1       6.370  -2.170  -2.591  0.00  0.00     0.082 H 
ATOM     28  H   LIG d   1       7.618  -0.880  -2.671  0.00  0.00     0.082 H 
ATOM     29  H   LIG d   1       2.857  -1.514  -2.758  0.00  0.00     0.033 H 
ATOM     30  H   LIG d   1       4.359  -2.358  -2.249  0.00  0.00     0.033 H 
ATOM     31  H   LIG d   1       3.523   0.538  -1.773  0.00  0.00     0.032 H 
ATOM     32  H   LIG d   1       4.613  -0.492  -0.784  0.00  0.00     0.032 H 
ATOM     33  H   LIG d   1       6.453   0.462  -1.872  0.00  0.00     0.082 H 
ATOM     34  H   LIG d   1       5.359   1.416  -2.931  0.00  0.00     0.082 H 
ATOM     35  H   LIG d   1       3.244   0.861  -4.255  0.00  0.00     0.067 H 
ATOM     36  H   LIG d   1       6.456  -7.350  -7.744  0.00  0.00     0.117 H 
ATOM     37  H   LIG d   1       6.495  -8.599  -6.454  0.00  0.00     0.117 H 
ATOM     38  H   LIG d   1       6.307  -0.054  -4.580  0.00  0.00     0.204 HD
ENDROOT
BRANCH   1  39
ATOM     39  O   LIG d   1       5.737  -1.197  -6.856  0.00  0.00    -0.451 OA
BRANCH  39  40
ATOM     40  C   LIG d   1       5.903  -1.278  -8.186  0.00  0.00     0.340 C 
ATOM     41  O   LIG d   1       5.768  -2.340  -8.748  0.00  0.00    -0.248 OA
BRANCH  40  42
ATOM     42  C   LIG d   1       6.258  -0.046  -8.977  0.00  0.00     0.172 C 
BRANCH  42  43
ATOM     43  C   LIG d   1       6.096  -0.335 -10.470  0.00  0.00    -0.010 C 
ATOM     44  H   LIG d   1       6.106  -1.422 -10.637  0.00  0.00     0.030 H 
ATOM     45  H   LIG d   1       6.923   0.129 -11.027  0.00  0.00     0.030 H 
BRANCH  43  46
ATOM     46  C   LIG d   1       4.766   0.243 -10.960  0.00  0.00    -0.021 C 
ATOM     47  H   LIG d   1       4.957   1.142 -11.563  0.00  0.00     0.029 H 
ATOM     48  H   LIG d   1       4.141   0.508 -10.094  0.00  0.00     0.029 H 
BRANCH  46  49
ATOM     49  C   LIG d   1       4.039  -0.800 -11.812  0.00  0.00     0.061 C 
BRANCH  49  50
ATOM     50  C   LIG d   1       2.530  -0.668 -11.603  0.00  0.00    -0.036 C 
ATOM     51  H   LIG d   1       2.038  -0.501 -12.572  0.00  0.00     0.026 H 
ATOM     52  H   LIG d   1       2.325   0.181 -10.935  0.00  0.00     0.026 H 
ATOM     53  H   LIG d   1       2.141  -1.592 -11.150  0.00  0.00     0.026 H 
ENDBRANCH  49  50
BRANCH  49  54
ATOM     54  C   LIG d   1       4.372  -0.574 -13.289  0.00  0.00    -0.036 C 
ATOM     55  H   LIG d   1       3.686  -1.164 -13.914  0.00  0.00     0.026 H 
ATOM     56  H   LIG d   1       5.408  -0.890 -13.483  0.00  0.00     0.026 H 
ATOM     57  H   LIG d   1       4.263   0.493 -13.530  0.00  0.00     0.026 H 
ENDBRANCH  49  54
BRANCH  49  58
ATOM     58  O   LIG d   1       4.461  -2.109 -11.424  0.00  0.00    -0.389 OA
ATOM     59  H   LIG d   1       5.265  -2.231 -10.682  0.00  0.00     0.210 HD
ENDBRANCH  49  58
ENDBRANCH  46  49
ENDBRANCH  43  46
ENDBRANCH  42  43
BRANCH  42  60
ATOM     60  C   LIG d   1       7.708   0.345  -8.688  0.00  0.00     0.084 C 
ATOM     61  H   LIG d   1       8.102  -0.282  -7.875  0.00  0.00     0.041 H 
ATOM     62  H   LIG d   1       8.317   0.195  -9.593  0.00  0.00     0.041 H 
BRANCH  60  63
ATOM     63  C   LIG d   1       7.767   1.794  -8.280  0.00  0.00     0.310 C 
ATOM     64  O   LIG d   1       7.847   2.656  -9.123  0.00  0.00    -0.251 OA
BRANCH  63  65
ATOM     65  O   LIG d   1       7.729   2.128  -6.980  0.00  0.00    -0.468 OA
BRANCH  65  66
ATOM     66  C   LIG d   1       8.237   1.150  -6.033  0.00  0.00     0.082 C 
ATOM     67  H   LIG d   1       9.111   1.566  -5.511  0.00  0.00     0.066 H 
ATOM     68  H   LIG d   1       8.532   0.237  -6.572  0.00  0.00     0.066 H 
ATOM     69  H   LIG d   1       7.453   0.908  -5.301  0.00  0.00     0.066 H 
ENDBRANCH  65  66
ENDBRANCH  63  65
ENDBRANCH  60  63
ENDBRANCH  42  60
BRANCH  42  70
ATOM     70  O   LIG d   1       5.392   1.027  -8.602  0.00  0.00    -0.377 OA
ATOM     71  H   LIG d   1       4.788   1.540  -9.365  0.00  0.00     0.211 HD
ENDBRANCH  42  70
ENDBRANCH  40  42
ENDBRANCH  39  40
ENDBRANCH   1  39
BRANCH  19  72
ATOM     72  O   LIG d   1       2.975   0.509  -6.867  0.00  0.00    -0.496 OA
BRANCH  72  73
ATOM     73  C   LIG d   1       2.391  -0.155  -7.989  0.00  0.00     0.079 C 
ATOM     74  H   LIG d   1       1.864   0.579  -8.617  0.00  0.00     0.066 H 
ATOM     75  H   LIG d   1       1.676  -0.914  -7.635  0.00  0.00     0.066 H 
ATOM     76  H   LIG d   1       3.181  -0.643  -8.579  0.00  0.00     0.066 H 
ENDBRANCH  72  73
ENDBRANCH  19  72
TORSDOF 16
ENDMDL
MODEL 4
REMARK VINA RESULT:      -6.0      2.690      7.395
REMARK  16 active torsions:
REMARK  status: ('A' for Active; 'I' for Inactive)
REMARK    1  A    between atoms: C_1  and  C_2 
REMARK    2  A    between atoms: C_2  and  C_3 
REMARK    3  A    between atoms: C_2  and  C_4 
REMARK    4  A    between atoms: C_2  and  O_40 
REMARK    5  A    between atoms: C_4  and  C_5 
REMARK    6  A    between atoms: C_5  and  C_6 
REMARK    7  A    between atoms: C_6  and  C_7 
REMARK    8  A    between atoms: C_6  and  C_12 
REMARK    9  A    between atoms: C_6  and  O_39 
REMARK   10  A    between atoms: C_7  and  C_8 
REMARK   11  A    between atoms: C_8  and  O_10 
REMARK   12  A    between atoms: O_10  and  C_11 
REMARK   13  A    between atoms: C_12  and  O_14 
REMARK   14  A    between atoms: O_14  and  C_15 
REMARK   15  A    between atoms: C_33  and  O_34 
REMARK   16  A    between atoms: O_34  and  C_35 
ROOT
ATOM      1  C   LIG d   1       4.639  -1.668  -6.447  0.00  0.00     0.172 C 
ATOM      2  H   LIG d   1       4.241  -2.214  -7.315  0.00  0.00     0.083 H 
ATOM      3  C   LIG d   1       4.574  -2.418  -5.094  0.00  0.00     0.078 C 
ATOM      4  H   LIG d   1       3.717  -3.026  -4.767  0.00  0.00     0.045 H 
ATOM      5  C   LIG d   1       5.419  -3.624  -5.080  0.00  0.00    -0.027 A 
ATOM      6  C   LIG d   1       4.752  -4.785  -5.527  0.00  0.00    -0.012 A 
ATOM      7  C   LIG d   1       5.484  -5.924  -5.783  0.00  0.00     0.167 A 
ATOM      8  C   LIG d   1       6.875  -5.934  -5.597  0.00  0.00     0.167 A 
ATOM      9  C   LIG d   1       7.518  -4.819  -5.101  0.00  0.00    -0.013 A 
ATOM     10  C   LIG d   1       6.758  -3.673  -4.807  0.00  0.00    -0.035 A 
ATOM     11  C   LIG d   1       7.540  -2.569  -4.171  0.00  0.00     0.013 C 
ATOM     12  C   LIG d   1       6.780  -1.807  -3.138  0.00  0.00    -0.027 C 
ATOM     13  N   LIG d   1       5.877  -0.796  -3.633  0.00  0.00     0.243 N 
ATOM     14  C   LIG d   1       4.593  -1.306  -4.110  0.00  0.00     0.023 C 
ATOM     15  C   LIG d   1       3.804  -1.606  -2.816  0.00  0.00     0.003 C 
ATOM     16  C   LIG d   1       4.202  -0.410  -1.913  0.00  0.00    -0.007 C 
ATOM     17  C   LIG d   1       5.523   0.120  -2.509  0.00  0.00    -0.031 C 
ATOM     18  C   LIG d   1       3.885  -0.161  -4.835  0.00  0.00     0.009 C 
ATOM     19  C   LIG d   1       3.912  -0.370  -6.137  0.00  0.00     0.140 C 
ATOM     20  O   LIG d   1       7.356  -7.145  -5.961  0.00  0.00    -0.453 OA
ATOM     21  C   LIG d   1       6.303  -7.767  -6.727  0.00  0.00     0.233 C 
ATOM     22  O   LIG d   1       5.099  -7.137  -6.241  0.00  0.00    -0.453 OA
ATOM     23  H   LIG d   1       3.680  -4.780  -5.665  0.00  0.00     0.066 H 
ATOM     24  H   LIG d   1       8.586  -4.825  -4.941  0.00  0.00     0.066 H 
ATOM     25  H   LIG d   1       8.431  -2.986  -3.679  0.00  0.00     0.036 H 
ATOM     26  H   LIG d   1       7.852  -1.849  -4.943  0.00  0.00     0.036 H 
ATOM     27  H   LIG d   1       6.165  -2.502  -2.548  0.00  0.00     0.082 H 
ATOM     28  H   LIG d   1       7.485  -1.287  -2.472  0.00  0.00     0.082 H 
ATOM     29  H   LIG d   1       2.728  -1.636  -3.041  0.00  0.00     0.033 H 
ATOM     30  H   LIG d   1       4.122  -2.577  -2.409  0.00  0.00     0.033 H 
ATOM     31  H   LIG d   1       3.410   0.352  -1.945  0.00  0.00     0.032 H 
ATOM     32  H   LIG d   1       4.335  -0.760  -0.880  0.00  0.00     0.032 H 
ATOM     33  H   LIG d   1       6.326   0.106  -1.757  0.00  0.00     0.082 H 
ATOM     34  H   LIG d   1       5.399   1.143  -2.894  0.00  0.00     0.082 H 
ATOM     35  H   LIG d   1       3.397   0.740  -4.433  0.00  0.00     0.067 H 
ATOM     36  H   LIG d   1       6.467  -7.577  -7.797  0.00  0.00     0.117 H 
ATOM     37  H   LIG d   1       6.307  -8.851  -6.541  0.00  0.00     0.117 H 
ATOM     38  H   LIG d   1       6.420  -0.348  -4.478  0.00  0.00     0.204 HD
ENDROOT
BRANCH   1  39
ATOM     39  O   LIG d   1       6.016  -1.411  -6.828  0.00  0.00    -0.451 OA
BRANCH  39  40
ATOM     40  C   LIG d   1       6.223  -0.896  -8.051  0.00  0.00     0.340 C 
ATOM     41  O   LIG d   1       5.742  -1.433  -9.021  0.00  0.00    -0.248 OA
BRANCH  40  42
ATOM     42  C   LIG d   1       7.056   0.348  -8.213  0.00  0.00     0.172 C 
BRANCH  42  43
ATOM     43  C   LIG d   1       7.640   0.391  -9.626  0.00  0.00    -0.010 C 
ATOM     44  H   LIG d   1       7.279   1.290 -10.146  0.00  0.00     0.030 H 
ATOM     45  H   LIG d   1       7.323  -0.505 -10.181  0.00  0.00     0.030 H 
BRANCH  43  46
ATOM     46  C   LIG d   1       9.167   0.426  -9.547  0.00  0.00    -0.021 C 
ATOM     47  H   LIG d   1       9.586  -0.365 -10.185  0.00  0.00     0.029 H 
ATOM     48  H   LIG d   1       9.484   0.263  -8.505  0.00  0.00     0.029 H 
BRANCH  46  49
ATOM     49  C   LIG d   1       9.672   1.789 -10.025  0.00  0.00     0.061 C 
BRANCH  49  50
ATOM     50  C   LIG d   1      10.929   2.171  -9.243  0.00  0.00    -0.036 C 
ATOM     51  H   LIG d   1      11.822   1.913  -9.832  0.00  0.00     0.026 H 
ATOM     52  H   LIG d   1      10.948   1.624  -8.289  0.00  0.00     0.026 H 
ATOM     53  H   LIG d   1      10.922   3.254  -9.044  0.00  0.00     0.026 H 
ENDBRANCH  49  50
BRANCH  49  54
ATOM     54  C   LIG d   1      10.001   1.716 -11.518  0.00  0.00    -0.036 C 
ATOM     55  H   LIG d   1      10.362   0.708 -11.765  0.00  0.00     0.026 H 
ATOM     56  H   LIG d   1      10.782   2.454 -11.757  0.00  0.00     0.026 H 
ATOM     57  H   LIG d   1       9.097   1.937 -12.104  0.00  0.00     0.026 H 
ENDBRANCH  49  54
BRANCH  49  58
ATOM     58  O   LIG d   1       8.659   2.774  -9.808  0.00  0.00    -0.389 OA
ATOM     59  H   LIG d   1       8.760   3.775 -10.255  0.00  0.00     0.210 HD
ENDBRANCH  49  58
ENDBRANCH  46  49
ENDBRANCH  43  46
ENDBRANCH  42  43
BRANCH  42  60
ATOM     60  C   LIG d   1       8.195   0.336  -7.191  0.00  0.00     0.084 C 
ATOM     61  H   LIG d   1       8.110  -0.558  -6.558  0.00  0.00     0.041 H 
ATOM     62  H   LIG d   1       9.161   0.321  -7.719  0.00  0.00     0.041 H 
BRANCH  60  63
ATOM     63  C   LIG d   1       8.113   1.571  -6.331  0.00  0.00     0.310 C 
ATOM     64  O   LIG d   1       8.631   2.598  -6.700  0.00  0.00    -0.251 OA
BRANCH  63  65
ATOM     65  O   LIG d   1       7.462   1.530  -5.158  0.00  0.00    -0.468 OA
BRANCH  65  66
ATOM     66  C   LIG d   1       8.177   2.015  -3.990  0.00  0.00     0.082 C 
ATOM     67  H   LIG d   1       7.828   3.028  -3.741  0.00  0.00     0.066 H 
ATOM     68  H   LIG d   1       9.255   2.042  -4.206  0.00  0.00     0.066 H 
ATOM     69  H   LIG d   1       7.989   1.343  -3.140  0.00  0.00     0.066 H 
ENDBRANCH  65  66
ENDBRANCH  63  65
ENDBRANCH  60  63
ENDBRANCH  42  60
BRANCH  42  70
ATOM     70  O   LIG d   1       6.238   1.500  -8.000  0.00  0.00    -0.377 OA
ATOM     71  H   LIG d   1       5.313   1.417  -7.411  0.00  0.00     0.211 HD
ENDBRANCH  42  70
ENDBRANCH  40  42
ENDBRANCH  39  40
ENDBRANCH   1  39
BRANCH  19  72
ATOM     72  O   LIG d   1       3.370   0.456  -7.066  0.00  0.00    -0.496 OA
BRANCH  72  73
ATOM     73  C   LIG d   1       2.552  -0.146  -8.072  0.00  0.00     0.079 C 
ATOM     74  H   LIG d   1       1.812   0.585  -8.429  0.00  0.00     0.066 H 
ATOM     75  H   LIG d   1       2.031  -1.018  -7.648  0.00  0.00     0.066 H 
ATOM     76  H   LIG d   1       3.184  -0.470  -8.913  0.00  0.00     0.066 H 
ENDBRANCH  72  73
ENDBRANCH  19  72
TORSDOF 16
ENDMDL
MODEL 5
REMARK VINA RESULT:      -5.9      2.605      6.025
REMARK  16 active torsions:
REMARK  status: ('A' for Active; 'I' for Inactive)
REMARK    1  A    between atoms: C_1  and  C_2 
REMARK    2  A    between atoms: C_2  and  C_3 
REMARK    3  A    between atoms: C_2  and  C_4 
REMARK    4  A    between atoms: C_2  and  O_40 
REMARK    5  A    between atoms: C_4  and  C_5 
REMARK    6  A    between atoms: C_5  and  C_6 
REMARK    7  A    between atoms: C_6  and  C_7 
REMARK    8  A    between atoms: C_6  and  C_12 
REMARK    9  A    between atoms: C_6  and  O_39 
REMARK   10  A    between atoms: C_7  and  C_8 
REMARK   11  A    between atoms: C_8  and  O_10 
REMARK   12  A    between atoms: O_10  and  C_11 
REMARK   13  A    between atoms: C_12  and  O_14 
REMARK   14  A    between atoms: O_14  and  C_15 
REMARK   15  A    between atoms: C_33  and  O_34 
REMARK   16  A    between atoms: O_34  and  C_35 
ROOT
ATOM      1  C   LIG d   1       8.399  -0.917  -5.692  0.00  0.00     0.172 C 
ATOM      2  H   LIG d   1       8.433   0.170  -5.530  0.00  0.00     0.083 H 
ATOM      3  C   LIG d   1       8.034  -1.771  -4.453  0.00  0.00     0.078 C 
ATOM      4  H   LIG d   1       8.412  -1.577  -3.439  0.00  0.00     0.045 H 
ATOM      5  C   LIG d   1       6.663  -1.514  -3.980  0.00  0.00    -0.027 A 
ATOM      6  C   LIG d   1       6.581  -0.470  -3.034  0.00  0.00    -0.012 A 
ATOM      7  C   LIG d   1       5.343   0.026  -2.686  0.00  0.00     0.167 A 
ATOM      8  C   LIG d   1       4.176  -0.505  -3.258  0.00  0.00     0.167 A 
ATOM      9  C   LIG d   1       4.254  -1.567  -4.135  0.00  0.00    -0.013 A 
ATOM     10  C   LIG d   1       5.519  -2.090  -4.456  0.00  0.00    -0.035 A 
ATOM     11  C   LIG d   1       5.473  -3.307  -5.324  0.00  0.00     0.013 C 
ATOM     12  C   LIG d   1       6.523  -4.317  -5.004  0.00  0.00    -0.027 C 
ATOM     13  N   LIG d   1       7.837  -4.059  -5.545  0.00  0.00     0.243 N 
ATOM     14  C   LIG d   1       8.628  -3.091  -4.788  0.00  0.00     0.023 C 
ATOM     15  C   LIG d   1       9.115  -3.885  -3.556  0.00  0.00     0.003 C 
ATOM     16  C   LIG d   1       9.439  -5.268  -4.174  0.00  0.00    -0.007 C 
ATOM     17  C   LIG d   1       8.632  -5.320  -5.487  0.00  0.00    -0.031 C 
ATOM     18  C   LIG d   1       9.853  -2.739  -5.634  0.00  0.00     0.009 C 
ATOM     19  C   LIG d   1       9.720  -1.525  -6.133  0.00  0.00     0.140 C 
ATOM     20  O   LIG d   1       3.109   0.181  -2.790  0.00  0.00    -0.453 OA
ATOM     21  C   LIG d   1       3.647   1.385  -2.206  0.00  0.00     0.233 C 
ATOM     22  O   LIG d   1       4.997   1.026  -1.843  0.00  0.00    -0.453 OA
ATOM     23  H   LIG d   1       7.478  -0.065  -2.588  0.00  0.00     0.066 H 
ATOM     24  H   LIG d   1       3.359  -1.989  -4.567  0.00  0.00     0.066 H 
ATOM     25  H   LIG d   1       4.498  -3.803  -5.209  0.00  0.00     0.036 H 
ATOM     26  H   LIG d   1       5.613  -3.013  -6.376  0.00  0.00     0.036 H 
ATOM     27  H   LIG d   1       6.650  -4.381  -3.913  0.00  0.00     0.082 H 
ATOM     28  H   LIG d   1       6.219  -5.300  -5.395  0.00  0.00     0.082 H 
ATOM     29  H   LIG d   1       9.996  -3.388  -3.125  0.00  0.00     0.033 H 
ATOM     30  H   LIG d   1       8.312  -3.925  -2.805  0.00  0.00     0.033 H 
ATOM     31  H   LIG d   1      10.521  -5.342  -4.360  0.00  0.00     0.032 H 
ATOM     32  H   LIG d   1       9.131  -6.062  -3.478  0.00  0.00     0.032 H 
ATOM     33  H   LIG d   1       7.952  -6.184  -5.497  0.00  0.00     0.082 H 
ATOM     34  H   LIG d   1       9.302  -5.371  -6.359  0.00  0.00     0.082 H 
ATOM     35  H   LIG d   1      10.755  -3.329  -5.855  0.00  0.00     0.067 H 
ATOM     36  H   LIG d   1       3.619   2.197  -2.948  0.00  0.00     0.117 H 
ATOM     37  H   LIG d   1       3.045   1.668  -1.330  0.00  0.00     0.117 H 
ATOM     38  H   LIG d   1       7.633  -3.652  -6.546  0.00  0.00     0.204 HD
ENDROOT
BRANCH   1  39
ATOM     39  O   LIG d   1       7.394  -1.059  -6.731  0.00  0.00    -0.451 OA
BRANCH  39  40
ATOM     40  C   LIG d   1       6.766   0.060  -7.128  0.00  0.00     0.340 C 
ATOM     41  O   LIG d   1       7.119   1.134  -6.701  0.00  0.00    -0.248 OA
BRANCH  40  42
ATOM     42  C   LIG d   1       5.623  -0.025  -8.106  0.00  0.00     0.172 C 
BRANCH  42  43
ATOM     43  C   LIG d   1       5.344  -1.492  -8.438  0.00  0.00    -0.010 C 
ATOM     44  H   LIG d   1       5.944  -2.138  -7.781  0.00  0.00     0.030 H 
ATOM     45  H   LIG d   1       5.609  -1.687  -9.487  0.00  0.00     0.030 H 
BRANCH  43  46
ATOM     46  C   LIG d   1       3.858  -1.789  -8.225  0.00  0.00    -0.021 C 
ATOM     47  H   LIG d   1       3.257  -0.960  -8.624  0.00  0.00     0.029 H 
ATOM     48  H   LIG d   1       3.658  -1.902  -7.148  0.00  0.00     0.029 H 
BRANCH  46  49
ATOM     49  C   LIG d   1       3.488  -3.085  -8.950  0.00  0.00     0.061 C 
BRANCH  49  50
ATOM     50  C   LIG d   1       2.272  -2.840  -9.844  0.00  0.00    -0.036 C 
ATOM     51  H   LIG d   1       1.519  -3.621  -9.663  0.00  0.00     0.026 H 
ATOM     52  H   LIG d   1       2.582  -2.866 -10.899  0.00  0.00     0.026 H 
ATOM     53  H   LIG d   1       1.840  -1.854  -9.613  0.00  0.00     0.026 H 
ENDBRANCH  49  50
BRANCH  49  54
ATOM     54  C   LIG d   1       4.669  -3.545  -9.808  0.00  0.00    -0.036 C 
ATOM     55  H   LIG d   1       5.591  -3.067  -9.449  0.00  0.00     0.026 H 
ATOM     56  H   LIG d   1       4.492  -3.261 -10.856  0.00  0.00     0.026 H 
ATOM     57  H   LIG d   1       4.769  -4.638  -9.737  0.00  0.00     0.026 H 
ENDBRANCH  49  54
BRANCH  49  58
ATOM     58  O   LIG d   1       3.175  -4.096  -7.988  0.00  0.00    -0.389 OA
ATOM     59  H   LIG d   1       3.034  -3.824  -6.931  0.00  0.00     0.210 HD
ENDBRANCH  49  58
ENDBRANCH  46  49
ENDBRANCH  43  46
ENDBRANCH  42  43
BRANCH  42  60
ATOM     60  C   LIG d   1       5.990   0.727  -9.386  0.00  0.00     0.084 C 
ATOM     61  H   LIG d   1       6.998   1.153  -9.285  0.00  0.00     0.041 H 
ATOM     62  H   LIG d   1       5.971   0.031 -10.239  0.00  0.00     0.041 H 
BRANCH  60  63
ATOM     63  C   LIG d   1       4.997   1.836  -9.621  0.00  0.00     0.310 C 
ATOM     64  O   LIG d   1       5.185   2.927  -9.139  0.00  0.00    -0.251 OA
BRANCH  63  65
ATOM     65  O   LIG d   1       3.904   1.611 -10.367  0.00  0.00    -0.468 OA
BRANCH  65  66
ATOM     66  C   LIG d   1       3.991   0.559 -11.365  0.00  0.00     0.082 C 
ATOM     67  H   LIG d   1       3.458  -0.332 -11.005  0.00  0.00     0.066 H 
ATOM     68  H   LIG d   1       5.048   0.309 -11.542  0.00  0.00     0.066 H 
ATOM     69  H   LIG d   1       3.534   0.906 -12.304  0.00  0.00     0.066 H 
ENDBRANCH  65  66
ENDBRANCH  63  65
ENDBRANCH  60  63
ENDBRANCH  42  60
BRANCH  42  70
ATOM     70  O   LIG d   1       4.456   0.563  -7.526  0.00  0.00    -0.377 OA
ATOM     71  H   LIG d   1       3.869   0.004  -6.783  0.00  0.00     0.211 HD
ENDBRANCH  42  70
ENDBRANCH  40  42
ENDBRANCH  39  40
ENDBRANCH   1  39
BRANCH  19  72
ATOM     72  O   LIG d   1      10.632  -0.909  -6.926  0.00  0.00    -0.496 OA
BRANCH  72  73
ATOM     73  C   LIG d   1      10.630   0.520  -6.929  0.00  0.00     0.079 C 
ATOM     74  H   LIG d   1      11.205   0.886  -7.792  0.00  0.00     0.066 H 
ATOM     75  H   LIG d   1      11.089   0.889  -5.999  0.00  0.00     0.066 H 
ATOM     76  H   LIG d   1       9.594   0.885  -6.996  0.00  0.00     0.066 H 
ENDBRANCH  72  73
ENDBRANCH  19  72
TORSDOF 16
ENDMDL
MODEL 6
REMARK VINA RESULT:      -5.9      2.678      6.776
REMARK  16 active torsions:
REMARK  status: ('A' for Active; 'I' for Inactive)
REMARK    1  A    between atoms: C_1  and  C_2 
REMARK    2  A    between atoms: C_2  and  C_3 
REMARK    3  A    between atoms: C_2  and  C_4 
REMARK    4  A    between atoms: C_2  and  O_40 
REMARK    5  A    between atoms: C_4  and  C_5 
REMARK    6  A    between atoms: C_5  and  C_6 
REMARK    7  A    between atoms: C_6  and  C_7 
REMARK    8  A    between atoms: C_6  and  C_12 
REMARK    9  A    between atoms: C_6  and  O_39 
REMARK   10  A    between atoms: C_7  and  C_8 
REMARK   11  A    between atoms: C_8  and  O_10 
REMARK   12  A    between atoms: O_10  and  C_11 
REMARK   13  A    between atoms: C_12  and  O_14 
REMARK   14  A    between atoms: O_14  and  C_15 
REMARK   15  A    between atoms: C_33  and  O_34 
REMARK   16  A    between atoms: O_34  and  C_35 
ROOT
ATOM      1  C   LIG d   1       4.530  -1.003  -6.409  0.00  0.00     0.172 C 
ATOM      2  H   LIG d   1       4.467  -1.779  -7.186  0.00  0.00     0.083 H 
ATOM      3  C   LIG d   1       4.693  -1.516  -4.957  0.00  0.00     0.078 C 
ATOM      4  H   LIG d   1       4.156  -2.383  -4.547  0.00  0.00     0.045 H 
ATOM      5  C   LIG d   1       5.969  -2.224  -4.753  0.00  0.00    -0.027 A 
ATOM      6  C   LIG d   1       5.895  -3.607  -5.020  0.00  0.00    -0.012 A 
ATOM      7  C   LIG d   1       7.058  -4.341  -5.094  0.00  0.00     0.167 A 
ATOM      8  C   LIG d   1       8.304  -3.724  -4.898  0.00  0.00     0.167 A 
ATOM      9  C   LIG d   1       8.372  -2.384  -4.576  0.00  0.00    -0.013 A 
ATOM     10  C   LIG d   1       7.177  -1.651  -4.467  0.00  0.00    -0.035 A 
ATOM     11  C   LIG d   1       7.365  -0.242  -4.003  0.00  0.00     0.013 C 
ATOM     12  C   LIG d   1       6.280   0.249  -3.105  0.00  0.00    -0.027 C 
ATOM     13  N   LIG d   1       5.071   0.692  -3.756  0.00  0.00     0.243 N 
ATOM     14  C   LIG d   1       4.165  -0.382  -4.156  0.00  0.00     0.023 C 
ATOM     15  C   LIG d   1       3.488  -0.815  -2.837  0.00  0.00     0.003 C 
ATOM     16  C   LIG d   1       3.272   0.546  -2.127  0.00  0.00    -0.007 C 
ATOM     17  C   LIG d   1       4.280   1.508  -2.788  0.00  0.00    -0.031 C 
ATOM     18  C   LIG d   1       3.091   0.234  -5.054  0.00  0.00     0.009 C 
ATOM     19  C   LIG d   1       3.299  -0.118  -6.308  0.00  0.00     0.140 C 
ATOM     20  O   LIG d   1       9.280  -4.644  -5.069  0.00  0.00    -0.453 OA
ATOM     21  C   LIG d   1       8.651  -5.757  -5.737  0.00  0.00     0.233 C 
ATOM     22  O   LIG d   1       7.261  -5.652  -5.362  0.00  0.00    -0.453 OA
ATOM     23  H   LIG d   1       4.936  -4.085  -5.164  0.00  0.00     0.066 H 
ATOM     24  H   LIG d   1       9.326  -1.906  -4.410  0.00  0.00     0.066 H 
ATOM     25  H   LIG d   1       8.311  -0.163  -3.447  0.00  0.00     0.036 H 
ATOM     26  H   LIG d   1       7.396   0.430  -4.875  0.00  0.00     0.036 H 
ATOM     27  H   LIG d   1       5.979  -0.557  -2.419  0.00  0.00     0.082 H 
ATOM     28  H   LIG d   1       6.647   1.108  -2.522  0.00  0.00     0.082 H 
ATOM     29  H   LIG d   1       2.547  -1.338  -3.062  0.00  0.00     0.033 H 
ATOM     30  H   LIG d   1       4.159  -1.488  -2.284  0.00  0.00     0.033 H 
ATOM     31  H   LIG d   1       2.234   0.878  -2.280  0.00  0.00     0.032 H 
ATOM     32  H   LIG d   1       3.466   0.432  -1.051  0.00  0.00     0.032 H 
ATOM     33  H   LIG d   1       4.956   1.945  -2.038  0.00  0.00     0.082 H 
ATOM     34  H   LIG d   1       3.760   2.314  -3.327  0.00  0.00     0.082 H 
ATOM     35  H   LIG d   1       2.238   0.881  -4.799  0.00  0.00     0.067 H 
ATOM     36  H   LIG d   1       8.795  -5.663  -6.823  0.00  0.00     0.117 H 
ATOM     37  H   LIG d   1       9.103  -6.697  -5.387  0.00  0.00     0.117 H 
ATOM     38  H   LIG d   1       5.431   1.212  -4.656  0.00  0.00     0.204 HD
ENDROOT
BRANCH   1  39
ATOM     39  O   LIG d   1       5.690  -0.230  -6.817  0.00  0.00    -0.451 OA
BRANCH  39  40
ATOM     40  C   LIG d   1       6.226  -0.520  -8.013  0.00  0.00     0.340 C 
ATOM     41  O   LIG d   1       5.882  -1.517  -8.603  0.00  0.00    -0.248 OA
BRANCH  40  42
ATOM     42  C   LIG d   1       7.258   0.396  -8.618  0.00  0.00     0.172 C 
BRANCH  42  43
ATOM     43  C   LIG d   1       8.531   0.361  -7.771  0.00  0.00    -0.010 C 
ATOM     44  H   LIG d   1       9.401   0.196  -8.422  0.00  0.00     0.030 H 
ATOM     45  H   LIG d   1       8.461  -0.455  -7.037  0.00  0.00     0.030 H 
BRANCH  43  46
ATOM     46  C   LIG d   1       8.691   1.693  -7.036  0.00  0.00    -0.021 C 
ATOM     47  H   LIG d   1       7.866   1.818  -6.319  0.00  0.00     0.029 H 
ATOM     48  H   LIG d   1       8.672   2.518  -7.764  0.00  0.00     0.029 H 
BRANCH  46  49
ATOM     49  C   LIG d   1      10.025   1.706  -6.287  0.00  0.00     0.061 C 
BRANCH  49  50
ATOM     50  C   LIG d   1       9.836   2.358  -4.917  0.00  0.00    -0.036 C 
ATOM     51  H   LIG d   1      10.232   1.693  -4.135  0.00  0.00     0.026 H 
ATOM     52  H   LIG d   1       8.764   2.534  -4.740  0.00  0.00     0.026 H 
ATOM     53  H   LIG d   1      10.374   3.317  -4.889  0.00  0.00     0.026 H 
ENDBRANCH  49  50
BRANCH  49  54
ATOM     54  C   LIG d   1      10.522   0.270  -6.105  0.00  0.00    -0.036 C 
ATOM     55  H   LIG d   1       9.694  -0.363  -5.752  0.00  0.00     0.026 H 
ATOM     56  H   LIG d   1      11.336   0.254  -5.365  0.00  0.00     0.026 H 
ATOM     57  H   LIG d   1      10.893  -0.114  -7.066  0.00  0.00     0.026 H 
ENDBRANCH  49  54
BRANCH  49  58
ATOM     58  O   LIG d   1      10.986   2.450  -7.039  0.00  0.00    -0.389 OA
ATOM     59  H   LIG d   1      12.037   2.479  -6.713  0.00  0.00     0.210 HD
ENDBRANCH  49  58
ENDBRANCH  46  49
ENDBRANCH  43  46
ENDBRANCH  42  43
BRANCH  42  60
ATOM     60  C   LIG d   1       6.710   1.824  -8.657  0.00  0.00     0.084 C 
ATOM     61  H   LIG d   1       6.598   2.202  -7.631  0.00  0.00     0.041 H 
ATOM     62  H   LIG d   1       7.408   2.470  -9.211  0.00  0.00     0.041 H 
BRANCH  60  63
ATOM     63  C   LIG d   1       5.369   1.830  -9.344  0.00  0.00     0.310 C 
ATOM     64  O   LIG d   1       4.432   2.397  -8.834  0.00  0.00    -0.251 OA
BRANCH  63  65
ATOM     65  O   LIG d   1       5.216   1.208 -10.524  0.00  0.00    -0.468 OA
BRANCH  65  66
ATOM     66  C   LIG d   1       3.876   1.177 -11.084  0.00  0.00     0.082 C 
ATOM     67  H   LIG d   1       3.613   0.142 -11.346  0.00  0.00     0.066 H 
ATOM     68  H   LIG d   1       3.841   1.805 -11.986  0.00  0.00     0.066 H 
ATOM     69  H   LIG d   1       3.160   1.560 -10.342  0.00  0.00     0.066 H 
ENDBRANCH  65  66
ENDBRANCH  63  65
ENDBRANCH  60  63
ENDBRANCH  42  60
BRANCH  42  70
ATOM     70  O   LIG d   1       7.557  -0.035  -9.947  0.00  0.00    -0.377 OA
ATOM     71  H   LIG d   1       7.879  -1.071 -10.130  0.00  0.00     0.211 HD
ENDBRANCH  42  70
ENDBRANCH  40  42
ENDBRANCH  39  40
ENDBRANCH   1  39
BRANCH  19  72
ATOM     72  O   LIG d   1       2.525   0.258  -7.357  0.00  0.00    -0.496 OA
BRANCH  72  73
ATOM     73  C   LIG d   1       2.443  -0.647  -8.460  0.00  0.00     0.079 C 
ATOM     74  H   LIG d   1       3.388  -0.627  -9.023  0.00  0.00     0.066 H 
ATOM     75  H   LIG d   1       1.616  -0.345  -9.121  0.00  0.00     0.066 H 
ATOM     76  H   LIG d   1       2.260  -1.665  -8.087  0.00  0.00     0.066 H 
ENDBRANCH  72  73
ENDBRANCH  19  72
TORSDOF 16
ENDMDL
MODEL 7
REMARK VINA RESULT:      -5.8      2.380      6.357
REMARK  16 active torsions:
REMARK  status: ('A' for Active; 'I' for Inactive)
REMARK    1  A    between atoms: C_1  and  C_2 
REMARK    2  A    between atoms: C_2  and  C_3 
REMARK    3  A    between atoms: C_2  and  C_4 
REMARK    4  A    between atoms: C_2  and  O_40 
REMARK    5  A    between atoms: C_4  and  C_5 
REMARK    6  A    between atoms: C_5  and  C_6 
REMARK    7  A    between atoms: C_6  and  C_7 
REMARK    8  A    between atoms: C_6  and  C_12 
REMARK    9  A    between atoms: C_6  and  O_39 
REMARK   10  A    between atoms: C_7  and  C_8 
REMARK   11  A    between atoms: C_8  and  O_10 
REMARK   12  A    between atoms: O_10  and  C_11 
REMARK   13  A    between atoms: C_12  and  O_14 
REMARK   14  A    between atoms: O_14  and  C_15 
REMARK   15  A    between atoms: C_33  and  O_34 
REMARK   16  A    between atoms: O_34  and  C_35 
ROOT
ATOM      1  C   LIG d   1       4.465  -1.621  -6.340  0.00  0.00     0.172 C 
ATOM      2  H   LIG d   1       4.014  -2.188  -7.167  0.00  0.00     0.083 H 
ATOM      3  C   LIG d   1       4.505  -2.345  -4.971  0.00  0.00     0.078 C 
ATOM      4  H   LIG d   1       3.680  -2.955  -4.574  0.00  0.00     0.045 H 
ATOM      5  C   LIG d   1       5.363  -3.541  -4.995  0.00  0.00    -0.027 A 
ATOM      6  C   LIG d   1       4.681  -4.718  -5.371  0.00  0.00    -0.012 A 
ATOM      7  C   LIG d   1       5.406  -5.854  -5.657  0.00  0.00     0.167 A 
ATOM      8  C   LIG d   1       6.807  -5.845  -5.568  0.00  0.00     0.167 A 
ATOM      9  C   LIG d   1       7.469  -4.714  -5.141  0.00  0.00    -0.013 A 
ATOM     10  C   LIG d   1       6.718  -3.570  -4.816  0.00  0.00    -0.035 A 
ATOM     11  C   LIG d   1       7.530  -2.445  -4.258  0.00  0.00     0.013 C 
ATOM     12  C   LIG d   1       6.835  -1.671  -3.188  0.00  0.00    -0.027 C 
ATOM     13  N   LIG d   1       5.887  -0.680  -3.638  0.00  0.00     0.243 N 
ATOM     14  C   LIG d   1       4.580  -1.213  -4.013  0.00  0.00     0.023 C 
ATOM     15  C   LIG d   1       3.887  -1.496  -2.661  0.00  0.00     0.003 C 
ATOM     16  C   LIG d   1       4.334  -0.278  -1.812  0.00  0.00    -0.007 C 
ATOM     17  C   LIG d   1       5.602   0.254  -2.509  0.00  0.00    -0.031 C 
ATOM     18  C   LIG d   1       3.809  -0.090  -4.708  0.00  0.00     0.009 C 
ATOM     19  C   LIG d   1       3.746  -0.325  -6.005  0.00  0.00     0.140 C 
ATOM     20  O   LIG d   1       7.276  -7.058  -5.942  0.00  0.00    -0.453 OA
ATOM     21  C   LIG d   1       6.180  -7.706  -6.620  0.00  0.00     0.233 C 
ATOM     22  O   LIG d   1       5.004  -7.080  -6.063  0.00  0.00    -0.453 OA
ATOM     23  H   LIG d   1       3.602  -4.727  -5.433  0.00  0.00     0.066 H 
ATOM     24  H   LIG d   1       8.546  -4.705  -5.056  0.00  0.00     0.066 H 
ATOM     25  H   LIG d   1       8.458  -2.843  -3.822  0.00  0.00     0.036 H 
ATOM     26  H   LIG d   1       7.778  -1.737  -5.064  0.00  0.00     0.036 H 
ATOM     27  H   LIG d   1       6.272  -2.361  -2.543  0.00  0.00     0.082 H 
ATOM     28  H   LIG d   1       7.580  -1.131  -2.584  0.00  0.00     0.082 H 
ATOM     29  H   LIG d   1       2.799  -1.542  -2.809  0.00  0.00     0.033 H 
ATOM     30  H   LIG d   1       4.245  -2.455  -2.259  0.00  0.00     0.033 H 
ATOM     31  H   LIG d   1       3.531   0.475  -1.801  0.00  0.00     0.032 H 
ATOM     32  H   LIG d   1       4.543  -0.605  -0.784  0.00  0.00     0.032 H 
ATOM     33  H   LIG d   1       6.456   0.263  -1.816  0.00  0.00     0.082 H 
ATOM     34  H   LIG d   1       5.439   1.268  -2.904  0.00  0.00     0.082 H 
ATOM     35  H   LIG d   1       3.339   0.813  -4.290  0.00  0.00     0.067 H 
ATOM     36  H   LIG d   1       6.265  -7.535  -7.703  0.00  0.00     0.117 H 
ATOM     37  H   LIG d   1       6.209  -8.786  -6.415  0.00  0.00     0.117 H 
ATOM     38  H   LIG d   1       6.365  -0.243  -4.528  0.00  0.00     0.204 HD
ENDROOT
BRANCH   1  39
ATOM     39  O   LIG d   1       5.809  -1.356  -6.822  0.00  0.00    -0.451 OA
BRANCH  39  40
ATOM     40  C   LIG d   1       6.091  -1.735  -8.079  0.00  0.00     0.340 C 
ATOM     41  O   LIG d   1       6.029  -2.902  -8.386  0.00  0.00    -0.248 OA
BRANCH  40  42
ATOM     42  C   LIG d   1       6.484  -0.705  -9.106  0.00  0.00     0.172 C 
BRANCH  42  43
ATOM     43  C   LIG d   1       6.456   0.686  -8.469  0.00  0.00    -0.010 C 
ATOM     44  H   LIG d   1       5.946   0.634  -7.496  0.00  0.00     0.030 H 
ATOM     45  H   LIG d   1       5.917   1.381  -9.130  0.00  0.00     0.030 H 
BRANCH  43  46
ATOM     46  C   LIG d   1       7.889   1.184  -8.268  0.00  0.00    -0.021 C 
ATOM     47  H   LIG d   1       7.982   2.204  -8.668  0.00  0.00     0.029 H 
ATOM     48  H   LIG d   1       8.586   0.517  -8.798  0.00  0.00     0.029 H 
BRANCH  46  49
ATOM     49  C   LIG d   1       8.222   1.187  -6.774  0.00  0.00     0.061 C 
BRANCH  49  50
ATOM     50  C   LIG d   1       9.161   0.022  -6.459  0.00  0.00    -0.036 C 
ATOM     51  H   LIG d   1      10.206   0.358  -6.545  0.00  0.00     0.026 H 
ATOM     52  H   LIG d   1       8.980  -0.798  -7.169  0.00  0.00     0.026 H 
ATOM     53  H   LIG d   1       8.974  -0.332  -5.434  0.00  0.00     0.026 H 
ENDBRANCH  49  50
BRANCH  49  54
ATOM     54  C   LIG d   1       8.904   2.507  -6.407  0.00  0.00    -0.036 C 
ATOM     55  H   LIG d   1       8.952   2.603  -5.312  0.00  0.00     0.026 H 
ATOM     56  H   LIG d   1       8.326   3.346  -6.823  0.00  0.00     0.026 H 
ATOM     57  H   LIG d   1       9.922   2.522  -6.822  0.00  0.00     0.026 H 
ENDBRANCH  49  54
BRANCH  49  58
ATOM     58  O   LIG d   1       7.018   1.046  -6.018  0.00  0.00    -0.389 OA
ATOM     59  H   LIG d   1       6.372   0.168  -6.171  0.00  0.00     0.210 HD
ENDBRANCH  49  58
ENDBRANCH  46  49
ENDBRANCH  43  46
ENDBRANCH  42  43
BRANCH  42  60
ATOM     60  C   LIG d   1       5.500  -0.750 -10.276  0.00  0.00     0.084 C 
ATOM     61  H   LIG d   1       4.629  -1.360  -9.999  0.00  0.00     0.041 H 
ATOM     62  H   LIG d   1       5.170   0.271 -10.518  0.00  0.00     0.041 H 
BRANCH  60  63
ATOM     63  C   LIG d   1       6.176  -1.357 -11.479  0.00  0.00     0.310 C 
ATOM     64  O   LIG d   1       6.708  -0.643 -12.296  0.00  0.00    -0.251 OA
BRANCH  63  65
ATOM     65  O   LIG d   1       6.190  -2.689 -11.641  0.00  0.00    -0.468 OA
BRANCH  65  66
ATOM     66  C   LIG d   1       7.382  -3.268 -12.236  0.00  0.00     0.082 C 
ATOM     67  H   LIG d   1       7.624  -4.212 -11.726  0.00  0.00     0.066 H 
ATOM     68  H   LIG d   1       8.223  -2.567 -12.129  0.00  0.00     0.066 H 
ATOM     69  H   LIG d   1       7.201  -3.464 -13.303  0.00  0.00     0.066 H 
ENDBRANCH  65  66
ENDBRANCH  63  65
ENDBRANCH  60  63
ENDBRANCH  42  60
BRANCH  42  70
ATOM     70  O   LIG d   1       7.802  -0.985  -9.581  0.00  0.00    -0.377 OA
ATOM     71  H   LIG d   1       8.517  -0.164  -9.739  0.00  0.00     0.211 HD
ENDBRANCH  42  70
ENDBRANCH  40  42
ENDBRANCH  39  40
ENDBRANCH   1  39
BRANCH  19  72
ATOM     72  O   LIG d   1       3.130   0.477  -6.909  0.00  0.00    -0.496 OA
BRANCH  72  73
ATOM     73  C   LIG d   1       2.587  -0.153  -8.071  0.00  0.00     0.079 C 
ATOM     74  H   LIG d   1       1.503   0.029  -8.114  0.00  0.00     0.066 H 
ATOM     75  H   LIG d   1       2.775  -1.237  -8.023  0.00  0.00     0.066 H 
ATOM     76  H   LIG d   1       3.064   0.262  -8.971  0.00  0.00     0.066 H 
ENDBRANCH  72  73
ENDBRANCH  19  72
TORSDOF 16
ENDMDL
MODEL 8
REMARK VINA RESULT:      -5.6      3.026      7.351
REMARK  16 active torsions:
REMARK  status: ('A' for Active; 'I' for Inactive)
REMARK    1  A    between atoms: C_1  and  C_2 
REMARK    2  A    between atoms: C_2  and  C_3 
REMARK    3  A    between atoms: C_2  and  C_4 
REMARK    4  A    between atoms: C_2  and  O_40 
REMARK    5  A    between atoms: C_4  and  C_5 
REMARK    6  A    between atoms: C_5  and  C_6 
REMARK    7  A    between atoms: C_6  and  C_7 
REMARK    8  A    between atoms: C_6  and  C_12 
REMARK    9  A    between atoms: C_6  and  O_39 
REMARK   10  A    between atoms: C_7  and  C_8 
REMARK   11  A    between atoms: C_8  and  O_10 
REMARK   12  A    between atoms: O_10  and  C_11 
REMARK   13  A    between atoms: C_12  and  O_14 
REMARK   14  A    between atoms: O_14  and  C_15 
REMARK   15  A    between atoms: C_33  and  O_34 
REMARK   16  A    between atoms: O_34  and  C_35 
ROOT
ATOM      1  C   LIG d   1       7.395  -3.283  -4.626  0.00  0.00     0.172 C 
ATOM      2  H   LIG d   1       7.778  -2.799  -3.716  0.00  0.00     0.083 H 
ATOM      3  C   LIG d   1       5.882  -3.612  -4.627  0.00  0.00     0.078 C 
ATOM      4  H   LIG d   1       5.339  -4.012  -3.758  0.00  0.00     0.045 H 
ATOM      5  C   LIG d   1       5.046  -2.401  -4.578  0.00  0.00    -0.027 A 
ATOM      6  C   LIG d   1       4.748  -1.975  -3.266  0.00  0.00    -0.012 A 
ATOM      7  C   LIG d   1       4.174  -0.736  -3.076  0.00  0.00     0.167 A 
ATOM      8  C   LIG d   1       3.883   0.090  -4.173  0.00  0.00     0.167 A 
ATOM      9  C   LIG d   1       4.117  -0.353  -5.458  0.00  0.00    -0.013 A 
ATOM     10  C   LIG d   1       4.668  -1.633  -5.644  0.00  0.00    -0.035 A 
ATOM     11  C   LIG d   1       4.772  -2.051  -7.076  0.00  0.00     0.013 C 
ATOM     12  C   LIG d   1       4.508  -3.501  -7.304  0.00  0.00    -0.027 C 
ATOM     13  N   LIG d   1       5.608  -4.395  -7.030  0.00  0.00     0.243 N 
ATOM     14  C   LIG d   1       5.795  -4.716  -5.617  0.00  0.00     0.023 C 
ATOM     15  C   LIG d   1       4.678  -5.739  -5.312  0.00  0.00     0.003 C 
ATOM     16  C   LIG d   1       4.668  -6.596  -6.603  0.00  0.00    -0.007 C 
ATOM     17  C   LIG d   1       5.327  -5.710  -7.679  0.00  0.00    -0.031 C 
ATOM     18  C   LIG d   1       7.138  -5.436  -5.484  0.00  0.00     0.009 C 
ATOM     19  C   LIG d   1       8.025  -4.633  -4.929  0.00  0.00     0.140 C 
ATOM     20  O   LIG d   1       3.375   1.258  -3.718  0.00  0.00    -0.453 OA
ATOM     21  C   LIG d   1       3.697   1.299  -2.312  0.00  0.00     0.233 C 
ATOM     22  O   LIG d   1       3.825  -0.089  -1.941  0.00  0.00    -0.453 OA
ATOM     23  H   LIG d   1       4.966  -2.613  -2.421  0.00  0.00     0.066 H 
ATOM     24  H   LIG d   1       3.880   0.271  -6.307  0.00  0.00     0.066 H 
ATOM     25  H   LIG d   1       4.041  -1.488  -7.676  0.00  0.00     0.036 H 
ATOM     26  H   LIG d   1       5.787  -1.842  -7.446  0.00  0.00     0.036 H 
ATOM     27  H   LIG d   1       3.681  -3.830  -6.657  0.00  0.00     0.082 H 
ATOM     28  H   LIG d   1       4.236  -3.665  -8.358  0.00  0.00     0.082 H 
ATOM     29  H   LIG d   1       4.944  -6.315  -4.414  0.00  0.00     0.033 H 
ATOM     30  H   LIG d   1       3.731  -5.206  -5.140  0.00  0.00     0.033 H 
ATOM     31  H   LIG d   1       5.241  -7.520  -6.433  0.00  0.00     0.032 H 
ATOM     32  H   LIG d   1       3.631  -6.850  -6.866  0.00  0.00     0.032 H 
ATOM     33  H   LIG d   1       4.650  -5.560  -8.533  0.00  0.00     0.082 H 
ATOM     34  H   LIG d   1       6.270  -6.153  -8.031  0.00  0.00     0.082 H 
ATOM     35  H   LIG d   1       7.427  -6.458  -5.772  0.00  0.00     0.067 H 
ATOM     36  H   LIG d   1       4.634   1.855  -2.167  0.00  0.00     0.117 H 
ATOM     37  H   LIG d   1       2.884   1.801  -1.765  0.00  0.00     0.117 H 
ATOM     38  H   LIG d   1       6.490  -3.847  -7.393  0.00  0.00     0.204 HD
ENDROOT
BRANCH   1  39
ATOM     39  O   LIG d   1       7.714  -2.320  -5.665  0.00  0.00    -0.451 OA
BRANCH  39  40
ATOM     40  C   LIG d   1       8.708  -1.454  -5.409  0.00  0.00     0.340 C 
ATOM     41  O   LIG d   1       9.856  -1.832  -5.420  0.00  0.00    -0.248 OA
BRANCH  40  42
ATOM     42  C   LIG d   1       8.391  -0.012  -5.109  0.00  0.00     0.172 C 
BRANCH  42  43
ATOM     43  C   LIG d   1       7.380   0.511  -6.131  0.00  0.00    -0.010 C 
ATOM     44  H   LIG d   1       7.141   1.561  -5.907  0.00  0.00     0.030 H 
ATOM     45  H   LIG d   1       6.462  -0.093  -6.081  0.00  0.00     0.030 H 
BRANCH  43  46
ATOM     46  C   LIG d   1       7.978   0.413  -7.536  0.00  0.00    -0.021 C 
ATOM     47  H   LIG d   1       8.024  -0.642  -7.842  0.00  0.00     0.029 H 
ATOM     48  H   LIG d   1       8.993   0.838  -7.532  0.00  0.00     0.029 H 
BRANCH  46  49
ATOM     49  C   LIG d   1       7.102   1.194  -8.519  0.00  0.00     0.061 C 
BRANCH  49  50
ATOM     50  C   LIG d   1       7.759   2.540  -8.829  0.00  0.00    -0.036 C 
ATOM     51  H   LIG d   1       7.020   3.346  -8.706  0.00  0.00     0.026 H 
ATOM     52  H   LIG d   1       8.131   2.536  -9.864  0.00  0.00     0.026 H 
ATOM     53  H   LIG d   1       8.599   2.705  -8.138  0.00  0.00     0.026 H 
ENDBRANCH  49  50
BRANCH  49  54
ATOM     54  C   LIG d   1       6.947   0.391  -9.812  0.00  0.00    -0.036 C 
ATOM     55  H   LIG d   1       7.040   1.066 -10.676  0.00  0.00     0.026 H 
ATOM     56  H   LIG d   1       5.957  -0.089  -9.828  0.00  0.00     0.026 H 
ATOM     57  H   LIG d   1       7.729  -0.380  -9.861  0.00  0.00     0.026 H 
ENDBRANCH  49  54
BRANCH  49  58
ATOM     58  O   LIG d   1       5.816   1.415  -7.937  0.00  0.00    -0.389 OA
ATOM     59  H   LIG d   1       5.734   1.733  -6.886  0.00  0.00     0.210 HD
ENDBRANCH  49  58
ENDBRANCH  46  49
ENDBRANCH  43  46
ENDBRANCH  42  43
BRANCH  42  60
ATOM     60  C   LIG d   1       9.673   0.818  -5.189  0.00  0.00     0.084 C 
ATOM     61  H   LIG d   1      10.474   0.312  -4.631  0.00  0.00     0.041 H 
ATOM     62  H   LIG d   1       9.974   0.929  -6.242  0.00  0.00     0.041 H 
BRANCH  60  63
ATOM     63  C   LIG d   1       9.428   2.180  -4.592  0.00  0.00     0.310 C 
ATOM     64  O   LIG d   1       9.204   3.123  -5.312  0.00  0.00    -0.251 OA
BRANCH  63  65
ATOM     65  O   LIG d   1       9.458   2.345  -3.260  0.00  0.00    -0.468 OA
BRANCH  65  66
ATOM     66  C   LIG d   1      10.668   2.915  -2.693  0.00  0.00     0.082 C 
ATOM     67  H   LIG d   1      10.543   4.002  -2.581  0.00  0.00     0.066 H 
ATOM     68  H   LIG d   1      11.518   2.709  -3.360  0.00  0.00     0.066 H 
ATOM     69  H   LIG d   1      10.858   2.465  -1.707  0.00  0.00     0.066 H 
ENDBRANCH  65  66
ENDBRANCH  63  65
ENDBRANCH  60  63
ENDBRANCH  42  60
BRANCH  42  70
ATOM     70  O   LIG d   1       7.838   0.090  -3.795  0.00  0.00    -0.377 OA
ATOM     71  H   LIG d   1       7.031  -0.589  -3.483  0.00  0.00     0.211 HD
ENDBRANCH  42  70
ENDBRANCH  40  42
ENDBRANCH  39  40
ENDBRANCH   1  39
BRANCH  19  72
ATOM     72  O   LIG d   1       9.314  -4.964  -4.667  0.00  0.00    -0.496 OA
BRANCH  72  73
ATOM     73  C   LIG d   1       9.788  -4.729  -3.340  0.00  0.00     0.079 C 
ATOM     74  H   LIG d   1      10.520  -3.908  -3.352  0.00  0.00     0.066 H 
ATOM     75  H   LIG d   1      10.268  -5.642  -2.955  0.00  0.00     0.066 H 
ATOM     76  H   LIG d   1       8.943  -4.457  -2.691  0.00  0.00     0.066 H 
ENDBRANCH  72  73
ENDBRANCH  19  72
TORSDOF 16
ENDMDL
MODEL 9
REMARK VINA RESULT:      -5.6      2.669      6.431
REMARK  16 active torsions:
REMARK  status: ('A' for Active; 'I' for Inactive)
REMARK    1  A    between atoms: C_1  and  C_2 
REMARK    2  A    between atoms: C_2  and  C_3 
REMARK    3  A    between atoms: C_2  and  C_4 
REMARK    4  A    between atoms: C_2  and  O_40 
REMARK    5  A    between atoms: C_4  and  C_5 
REMARK    6  A    between atoms: C_5  and  C_6 
REMARK    7  A    between atoms: C_6  and  C_7 
REMARK    8  A    between atoms: C_6  and  C_12 
REMARK    9  A    between atoms: C_6  and  O_39 
REMARK   10  A    between atoms: C_7  and  C_8 
REMARK   11  A    between atoms: C_8  and  O_10 
REMARK   12  A    between atoms: O_10  and  C_11 
REMARK   13  A    between atoms: C_12  and  O_14 
REMARK   14  A    between atoms: O_14  and  C_15 
REMARK   15  A    between atoms: C_33  and  O_34 
REMARK   16  A    between atoms: O_34  and  C_35 
ROOT
ATOM      1  C   LIG d   1       4.441  -1.037  -6.539  0.00  0.00     0.172 C 
ATOM      2  H   LIG d   1       4.357  -1.820  -7.306  0.00  0.00     0.083 H 
ATOM      3  C   LIG d   1       4.545  -1.536  -5.076  0.00  0.00     0.078 C 
ATOM      4  H   LIG d   1       3.955  -2.369  -4.668  0.00  0.00     0.045 H 
ATOM      5  C   LIG d   1       5.778  -2.303  -4.833  0.00  0.00    -0.027 A 
ATOM      6  C   LIG d   1       5.641  -3.685  -5.083  0.00  0.00    -0.012 A 
ATOM      7  C   LIG d   1       6.767  -4.477  -5.119  0.00  0.00     0.167 A 
ATOM      8  C   LIG d   1       8.037  -3.920  -4.903  0.00  0.00     0.167 A 
ATOM      9  C   LIG d   1       8.165  -2.581  -4.596  0.00  0.00    -0.013 A 
ATOM     10  C   LIG d   1       7.006  -1.788  -4.526  0.00  0.00    -0.035 A 
ATOM     11  C   LIG d   1       7.255  -0.383  -4.076  0.00  0.00     0.013 C 
ATOM     12  C   LIG d   1       6.176   0.174  -3.210  0.00  0.00    -0.027 C 
ATOM     13  N   LIG d   1       5.005   0.668  -3.896  0.00  0.00     0.243 N 
ATOM     14  C   LIG d   1       4.056  -0.366  -4.303  0.00  0.00     0.023 C 
ATOM     15  C   LIG d   1       3.328  -0.745  -2.994  0.00  0.00     0.003 C 
ATOM     16  C   LIG d   1       3.164   0.635  -2.308  0.00  0.00    -0.007 C 
ATOM     17  C   LIG d   1       4.234   1.536  -2.957  0.00  0.00    -0.031 C 
ATOM     18  C   LIG d   1       3.035   0.290  -5.234  0.00  0.00     0.009 C 
ATOM     19  C   LIG d   1       3.254  -0.090  -6.478  0.00  0.00     0.140 C 
ATOM     20  O   LIG d   1       8.970  -4.890  -5.038  0.00  0.00    -0.453 OA
ATOM     21  C   LIG d   1       8.301  -5.981  -5.706  0.00  0.00     0.233 C 
ATOM     22  O   LIG d   1       6.910  -5.800  -5.365  0.00  0.00    -0.453 OA
ATOM     23  H   LIG d   1       4.662  -4.117  -5.244  0.00  0.00     0.066 H 
ATOM     24  H   LIG d   1       9.138  -2.149  -4.414  0.00  0.00     0.066 H 
ATOM     25  H   LIG d   1       8.190  -0.343  -3.499  0.00  0.00     0.036 H 
ATOM     26  H   LIG d   1       7.339   0.273  -4.956  0.00  0.00     0.036 H 
ATOM     27  H   LIG d   1       5.819  -0.606  -2.521  0.00  0.00     0.082 H 
ATOM     28  H   LIG d   1       6.571   1.022  -2.630  0.00  0.00     0.082 H 
ATOM     29  H   LIG d   1       2.367  -1.223  -3.235  0.00  0.00     0.033 H 
ATOM     30  H   LIG d   1       3.951  -1.443  -2.417  0.00  0.00     0.033 H 
ATOM     31  H   LIG d   1       2.149   1.017  -2.490  0.00  0.00     0.032 H 
ATOM     32  H   LIG d   1       3.327   0.527  -1.226  0.00  0.00     0.032 H 
ATOM     33  H   LIG d   1       4.913   1.949  -2.198  0.00  0.00     0.082 H 
ATOM     34  H   LIG d   1       3.768   2.359  -3.519  0.00  0.00     0.082 H 
ATOM     35  H   LIG d   1       2.210   0.982  -5.008  0.00  0.00     0.067 H 
ATOM     36  H   LIG d   1       8.475  -5.909  -6.789  0.00  0.00     0.117 H 
ATOM     37  H   LIG d   1       8.697  -6.937  -5.333  0.00  0.00     0.117 H 
ATOM     38  H   LIG d   1       5.412   1.156  -4.794  0.00  0.00     0.204 HD
ENDROOT
BRANCH   1  39
ATOM     39  O   LIG d   1       5.647  -0.328  -6.929  0.00  0.00    -0.451 OA
BRANCH  39  40
ATOM     40  C   LIG d   1       6.263  -0.743  -8.047  0.00  0.00     0.340 C 
ATOM     41  O   LIG d   1       5.728  -1.555  -8.765  0.00  0.00    -0.248 OA
BRANCH  40  42
ATOM     42  C   LIG d   1       7.620  -0.197  -8.407  0.00  0.00     0.172 C 
BRANCH  42  43
ATOM     43  C   LIG d   1       8.705  -1.110  -7.832  0.00  0.00    -0.010 C 
ATOM     44  H   LIG d   1       8.240  -1.883  -7.204  0.00  0.00     0.030 H 
ATOM     45  H   LIG d   1       9.402  -0.514  -7.225  0.00  0.00     0.030 H 
BRANCH  43  46
ATOM     46  C   LIG d   1       9.470  -1.776  -8.978  0.00  0.00    -0.021 C 
ATOM     47  H   LIG d   1      10.463  -1.313  -9.074  0.00  0.00     0.029 H 
ATOM     48  H   LIG d   1       8.911  -1.644  -9.917  0.00  0.00     0.029 H 
BRANCH  46  49
ATOM     49  C   LIG d   1       9.629  -3.270  -8.685  0.00  0.00     0.061 C 
BRANCH  49  50
ATOM     50  C   LIG d   1       8.251  -3.931  -8.646  0.00  0.00    -0.036 C 
ATOM     51  H   LIG d   1       8.221  -4.760  -9.369  0.00  0.00     0.026 H 
ATOM     52  H   LIG d   1       7.481  -3.190  -8.905  0.00  0.00     0.026 H 
ATOM     53  H   LIG d   1       8.059  -4.320  -7.635  0.00  0.00     0.026 H 
ENDBRANCH  49  50
BRANCH  49  54
ATOM     54  C   LIG d   1      10.476  -3.917  -9.782  0.00  0.00    -0.036 C 
ATOM     55  H   LIG d   1      10.917  -4.851  -9.402  0.00  0.00     0.026 H 
ATOM     56  H   LIG d   1      11.281  -3.227 -10.079  0.00  0.00     0.026 H 
ATOM     57  H   LIG d   1       9.842  -4.138 -10.653  0.00  0.00     0.026 H 
ENDBRANCH  49  54
BRANCH  49  58
ATOM     58  O   LIG d   1      10.274  -3.440  -7.421  0.00  0.00    -0.389 OA
ATOM     59  H   LIG d   1      11.105  -2.778  -7.134  0.00  0.00     0.210 HD
ENDBRANCH  49  58
ENDBRANCH  46  49
ENDBRANCH  43  46
ENDBRANCH  42  43
BRANCH  42  60
ATOM     60  C   LIG d   1       7.775   1.209  -7.823  0.00  0.00     0.084 C 
ATOM     61  H   LIG d   1       7.068   1.340  -6.991  0.00  0.00     0.041 H 
ATOM     62  H   LIG d   1       8.803   1.343  -7.455  0.00  0.00     0.041 H 
BRANCH  60  63
ATOM     63  C   LIG d   1       7.489   2.231  -8.893  0.00  0.00     0.310 C 
ATOM     64  O   LIG d   1       6.347   2.537  -9.145  0.00  0.00    -0.251 OA
BRANCH  63  65
ATOM     65  O   LIG d   1       8.501   2.804  -9.563  0.00  0.00    -0.468 OA
BRANCH  65  66
ATOM     66  C   LIG d   1       8.821   4.180  -9.225  0.00  0.00     0.082 C 
ATOM     67  H   LIG d   1       9.888   4.365  -9.417  0.00  0.00     0.066 H 
ATOM     68  H   LIG d   1       8.602   4.357  -8.162  0.00  0.00     0.066 H 
ATOM     69  H   LIG d   1       8.214   4.859  -9.843  0.00  0.00     0.066 H 
ENDBRANCH  65  66
ENDBRANCH  63  65
ENDBRANCH  60  63
ENDBRANCH  42  60
BRANCH  42  70
ATOM     70  O   LIG d   1       7.749  -0.139  -9.829  0.00  0.00    -0.377 OA
ATOM     71  H   LIG d   1       7.238   0.652 -10.396  0.00  0.00     0.211 HD
ENDBRANCH  42  70
ENDBRANCH  40  42
ENDBRANCH  39  40
ENDBRANCH   1  39
BRANCH  19  72
ATOM     72  O   LIG d   1       2.524   0.309  -7.550  0.00  0.00    -0.496 OA
BRANCH  72  73
ATOM     73  C   LIG d   1       2.411  -0.612  -8.637  0.00  0.00     0.079 C 
ATOM     74  H   LIG d   1       3.346  -0.615  -9.214  0.00  0.00     0.066 H 
ATOM     75  H   LIG d   1       1.578  -0.308  -9.289  0.00  0.00     0.066 H 
ATOM     76  H   LIG d   1       2.218  -1.621  -8.244  0.00  0.00     0.066 H 
ENDBRANCH  72  73
ENDBRANCH  19  72
TORSDOF 16
ENDMDL
MODEL 10
REMARK VINA RESULT:      -5.6      2.600      6.718
REMARK  16 active torsions:
REMARK  status: ('A' for Active; 'I' for Inactive)
REMARK    1  A    between atoms: C_1  and  C_2 
REMARK    2  A    between atoms: C_2  and  C_3 
REMARK    3  A    between atoms: C_2  and  C_4 
REMARK    4  A    between atoms: C_2  and  O_40 
REMARK    5  A    between atoms: C_4  and  C_5 
REMARK    6  A    between atoms: C_5  and  C_6 
REMARK    7  A    between atoms: C_6  and  C_7 
REMARK    8  A    between atoms: C_6  and  C_12 
REMARK    9  A    between atoms: C_6  and  O_39 
REMARK   10  A    between atoms: C_7  and  C_8 
REMARK   11  A    between atoms: C_8  and  O_10 
REMARK   12  A    between atoms: O_10  and  C_11 
REMARK   13  A    between atoms: C_12  and  O_14 
REMARK   14  A    between atoms: O_14  and  C_15 
REMARK   15  A    between atoms: C_33  and  O_34 
REMARK   16  A    between atoms: O_34  and  C_35 
ROOT
ATOM      1  C   LIG d   1       4.411  -1.678  -6.340  0.00  0.00     0.172 C 
ATOM      2  H   LIG d   1       3.976  -2.282  -7.149  0.00  0.00     0.083 H 
ATOM      3  C   LIG d   1       4.531  -2.381  -4.966  0.00  0.00     0.078 C 
ATOM      4  H   LIG d   1       3.757  -3.037  -4.540  0.00  0.00     0.045 H 
ATOM      5  C   LIG d   1       5.462  -3.521  -4.999  0.00  0.00    -0.027 A 
ATOM      6  C   LIG d   1       4.846  -4.743  -5.345  0.00  0.00    -0.012 A 
ATOM      7  C   LIG d   1       5.634  -5.834  -5.638  0.00  0.00     0.167 A 
ATOM      8  C   LIG d   1       7.033  -5.737  -5.586  0.00  0.00     0.167 A 
ATOM      9  C   LIG d   1       7.634  -4.561  -5.188  0.00  0.00    -0.013 A 
ATOM     10  C   LIG d   1       6.821  -3.463  -4.856  0.00  0.00    -0.035 A 
ATOM     11  C   LIG d   1       7.574  -2.283  -4.331  0.00  0.00     0.013 C 
ATOM     12  C   LIG d   1       6.859  -1.541  -3.252  0.00  0.00    -0.027 C 
ATOM     13  N   LIG d   1       5.840  -0.616  -3.687  0.00  0.00     0.243 N 
ATOM     14  C   LIG d   1       4.559  -1.235  -4.021  0.00  0.00     0.023 C 
ATOM     15  C   LIG d   1       3.921  -1.544  -2.649  0.00  0.00     0.003 C 
ATOM     16  C   LIG d   1       4.311  -0.290  -1.825  0.00  0.00    -0.007 C 
ATOM     17  C   LIG d   1       5.525   0.311  -2.561  0.00  0.00    -0.031 C 
ATOM     18  C   LIG d   1       3.701  -0.171  -4.709  0.00  0.00     0.009 C 
ATOM     19  C   LIG d   1       3.621  -0.425  -6.000  0.00  0.00     0.140 C 
ATOM     20  O   LIG d   1       7.568  -6.922  -5.960  0.00  0.00    -0.453 OA
ATOM     21  C   LIG d   1       6.497  -7.646  -6.601  0.00  0.00     0.233 C 
ATOM     22  O   LIG d   1       5.300  -7.088  -6.020  0.00  0.00    -0.453 OA
ATOM     23  H   LIG d   1       3.768  -4.821  -5.378  0.00  0.00     0.066 H 
ATOM     24  H   LIG d   1       8.710  -4.484  -5.132  0.00  0.00     0.066 H 
ATOM     25  H   LIG d   1       8.536  -2.617  -3.916  0.00  0.00     0.036 H 
ATOM     26  H   LIG d   1       7.756  -1.571  -5.151  0.00  0.00     0.036 H 
ATOM     27  H   LIG d   1       6.357  -2.257  -2.585  0.00  0.00     0.082 H 
ATOM     28  H   LIG d   1       7.583  -0.948  -2.673  0.00  0.00     0.082 H 
ATOM     29  H   LIG d   1       2.834  -1.660  -2.769  0.00  0.00     0.033 H 
ATOM     30  H   LIG d   1       4.348  -2.475  -2.247  0.00  0.00     0.033 H 
ATOM     31  H   LIG d   1       3.463   0.411  -1.802  0.00  0.00     0.032 H 
ATOM     32  H   LIG d   1       4.566  -0.592  -0.799  0.00  0.00     0.032 H 
ATOM     33  H   LIG d   1       6.394   0.383  -1.891  0.00  0.00     0.082 H 
ATOM     34  H   LIG d   1       5.288   1.308  -2.962  0.00  0.00     0.082 H 
ATOM     35  H   LIG d   1       3.187   0.706  -4.288  0.00  0.00     0.067 H 
ATOM     36  H   LIG d   1       6.545  -7.484  -7.688  0.00  0.00     0.117 H 
ATOM     37  H   LIG d   1       6.600  -8.720  -6.386  0.00  0.00     0.117 H 
ATOM     38  H   LIG d   1       6.266  -0.161  -4.593  0.00  0.00     0.204 HD
ENDROOT
BRANCH   1  39
ATOM     39  O   LIG d   1       5.722  -1.336  -6.861  0.00  0.00    -0.451 OA
BRANCH  39  40
ATOM     40  C   LIG d   1       5.950  -1.594  -8.158  0.00  0.00     0.340 C 
ATOM     41  O   LIG d   1       5.339  -2.476  -8.714  0.00  0.00    -0.248 OA
BRANCH  40  42
ATOM     42  C   LIG d   1       6.967  -0.785  -8.921  0.00  0.00     0.172 C 
BRANCH  42  43
ATOM     43  C   LIG d   1       8.217  -1.634  -9.161  0.00  0.00    -0.010 C 
ATOM     44  H   LIG d   1       8.143  -2.127 -10.141  0.00  0.00     0.030 H 
ATOM     45  H   LIG d   1       8.300  -2.396  -8.372  0.00  0.00     0.030 H 
BRANCH  43  46
ATOM     46  C   LIG d   1       9.456  -0.737  -9.134  0.00  0.00    -0.021 C 
ATOM     47  H   LIG d   1      10.210  -1.173  -8.463  0.00  0.00     0.029 H 
ATOM     48  H   LIG d   1       9.176   0.263  -8.771  0.00  0.00     0.029 H 
BRANCH  46  49
ATOM     49  C   LIG d   1      10.034  -0.622 -10.547  0.00  0.00     0.061 C 
BRANCH  49  50
ATOM     50  C   LIG d   1       9.685   0.747 -11.131  0.00  0.00    -0.036 C 
ATOM     51  H   LIG d   1      10.322   0.947 -12.005  0.00  0.00     0.026 H 
ATOM     52  H   LIG d   1       9.853   1.524 -10.370  0.00  0.00     0.026 H 
ATOM     53  H   LIG d   1       8.629   0.757 -11.437  0.00  0.00     0.026 H 
ENDBRANCH  49  50
BRANCH  49  54
ATOM     54  C   LIG d   1      11.554  -0.782 -10.490  0.00  0.00    -0.036 C 
ATOM     55  H   LIG d   1      11.833  -1.775 -10.873  0.00  0.00     0.026 H 
ATOM     56  H   LIG d   1      11.895  -0.682  -9.449  0.00  0.00     0.026 H 
ATOM     57  H   LIG d   1      12.028  -0.004 -11.107  0.00  0.00     0.026 H 
ENDBRANCH  49  54
BRANCH  49  58
ATOM     58  O   LIG d   1       9.477  -1.647 -11.373  0.00  0.00    -0.389 OA
ATOM     59  H   LIG d   1       9.330  -2.661 -10.968  0.00  0.00     0.210 HD
ENDBRANCH  49  58
ENDBRANCH  46  49
ENDBRANCH  43  46
ENDBRANCH  42  43
BRANCH  42  60
ATOM     60  C   LIG d   1       7.342   0.456  -8.110  0.00  0.00     0.084 C 
ATOM     61  H   LIG d   1       7.072   0.301  -7.056  0.00  0.00     0.041 H 
ATOM     62  H   LIG d   1       8.426   0.632  -8.188  0.00  0.00     0.041 H 
BRANCH  60  63
ATOM     63  C   LIG d   1       6.600   1.652  -8.649  0.00  0.00     0.310 C 
ATOM     64  O   LIG d   1       7.178   2.461  -9.336  0.00  0.00    -0.251 OA
BRANCH  63  65
ATOM     65  O   LIG d   1       5.299   1.818  -8.367  0.00  0.00    -0.468 OA
BRANCH  65  66
ATOM     66  C   LIG d   1       4.494   2.517  -9.354  0.00  0.00     0.082 C 
ATOM     67  H   LIG d   1       3.453   2.167  -9.292  0.00  0.00     0.066 H 
ATOM     68  H   LIG d   1       4.890   2.314 -10.360  0.00  0.00     0.066 H 
ATOM     69  H   LIG d   1       4.530   3.598  -9.157  0.00  0.00     0.066 H 
ENDBRANCH  65  66
ENDBRANCH  63  65
ENDBRANCH  60  63
ENDBRANCH  42  60
BRANCH  42  70
ATOM     70  O   LIG d   1       6.414  -0.385 -10.176  0.00  0.00    -0.377 OA
ATOM     71  H   LIG d   1       5.412   0.067 -10.217  0.00  0.00     0.211 HD
ENDBRANCH  42  70
ENDBRANCH  40  42
ENDBRANCH  39  40
ENDBRANCH   1  39
BRANCH  19  72
ATOM     72  O   LIG d   1       2.932   0.325  -6.896  0.00  0.00    -0.496 OA
BRANCH  72  73
ATOM     73  C   LIG d   1       2.483  -0.332  -8.084  0.00  0.00     0.079 C 
ATOM     74  H   LIG d   1       1.617  -0.966  -7.847  0.00  0.00     0.066 H 
ATOM     75  H   LIG d   1       3.295  -0.956  -8.487  0.00  0.00     0.066 H 
ATOM     76  H   LIG d   1       2.194   0.421  -8.832  0.00  0.00     0.066 H 
ENDBRANCH  72  73
ENDBRANCH  19  72
TORSDOF 16
ENDMDL
