MODEL 1
REMARK VINA RESULT:      -5.7      0.000      0.000
REMARK  4 active torsions:
REMARK  status: ('A' for Active; 'I' for Inactive)
REMARK    1  A    between atoms: C_1  and  C_2 
REMARK    2  A    between atoms: C_8  and  C_19 
REMARK    3  A    between atoms: C_13  and  C_17 
REMARK    4  A    between atoms: C_13  and  C_18 
ROOT
ATOM      1  C   LIG d   1       3.727  -0.466  -6.142  0.00  0.00     0.015 C 
ATOM      2  H   LIG d   1       3.449  -1.326  -5.714  0.00  0.00     0.037 H 
ATOM      3  C   LIG d   1       3.541   0.671  -5.141  0.00  0.00    -0.037 C 
ATOM      4  C   LIG d   1       2.667   0.191  -3.979  0.00  0.00     0.007 C 
ATOM      5  C   LIG d   1       3.437   0.221  -2.687  0.00  0.00     0.137 C 
ATOM      6  O   LIG d   1       3.196   1.084  -1.872  0.00  0.00    -0.297 OA
ATOM      7  C   LIG d   1       4.504  -0.799  -2.381  0.00  0.00     0.018 C 
ATOM      8  H   LIG d   1       4.783  -0.712  -1.425  0.00  0.00     0.038 H 
ATOM      9  C   LIG d   1       5.710  -0.548  -3.288  0.00  0.00    -0.025 C 
ATOM     10  C   LIG d   1       6.699  -1.672  -3.168  0.00  0.00    -0.087 C 
ATOM     11  C   LIG d   1       7.408  -2.094  -4.179  0.00  0.00    -0.082 C 
ATOM     12  C   LIG d   1       7.329  -1.487  -5.561  0.00  0.00    -0.010 C 
ATOM     13  C   LIG d   1       5.971  -1.774  -6.178  0.00  0.00     0.015 C 
ATOM     14  C   LIG d   1       5.173  -0.569  -6.575  0.00  0.00     0.137 C 
ATOM     15  O   LIG d   1       5.622   0.301  -7.280  0.00  0.00    -0.297 OA
ATOM     16  H   LIG d   1       3.027   1.499  -5.643  0.00  0.00     0.028 H 
ATOM     17  H   LIG d   1       4.498   1.024  -4.776  0.00  0.00     0.028 H 
ATOM     18  H   LIG d   1       2.359  -0.743  -4.157  0.00  0.00     0.034 H 
ATOM     19  H   LIG d   1       1.807   0.866  -3.888  0.00  0.00     0.034 H 
ATOM     20  H   LIG d   1       5.361  -0.474  -4.315  0.00  0.00     0.031 H 
ATOM     21  H   LIG d   1       6.186   0.389  -2.988  0.00  0.00     0.031 H 
ATOM     22  H   LIG d   1       6.851  -2.142  -2.199  0.00  0.00     0.057 H 
ATOM     23  H   LIG d   1       8.080  -2.937  -4.026  0.00  0.00     0.057 H 
ATOM     24  H   LIG d   1       5.403  -2.268  -5.519  0.00  0.00     0.035 H 
ATOM     25  H   LIG d   1       6.115  -2.403  -7.072  0.00  0.00     0.035 H 
ENDROOT
BRANCH  12  26
ATOM     26  C   LIG d   1       8.401  -2.182  -6.427  0.00  0.00    -0.056 C 
ATOM     27  H   LIG d   1       8.388  -3.253  -6.231  0.00  0.00     0.024 H 
ATOM     28  H   LIG d   1       8.190  -2.002  -7.480  0.00  0.00     0.024 H 
ATOM     29  H   LIG d   1       9.385  -1.780  -6.180  0.00  0.00     0.024 H 
ENDBRANCH  12  26
BRANCH  12  30
ATOM     30  C   LIG d   1       7.672  -0.004  -5.498  0.00  0.00    -0.056 C 
ATOM     31  H   LIG d   1       7.571   0.435  -6.491  0.00  0.00     0.024 H 
ATOM     32  H   LIG d   1       6.993   0.498  -4.808  0.00  0.00     0.024 H 
ATOM     33  H   LIG d   1       8.698   0.118  -5.150  0.00  0.00     0.024 H 
ENDBRANCH  12  30
BRANCH   1  34
ATOM     34  C   LIG d   1       2.858  -0.206  -7.376  0.00  0.00    -0.056 C 
ATOM     35  H   LIG d   1       1.850  -0.581  -7.195  0.00  0.00     0.024 H 
ATOM     36  H   LIG d   1       2.817   0.866  -7.573  0.00  0.00     0.024 H 
ATOM     37  H   LIG d   1       3.287  -0.717  -8.238  0.00  0.00     0.024 H 
ENDBRANCH   1  34
BRANCH   7  38
ATOM     38  C   LIG d   1       3.966  -2.209  -2.609  0.00  0.00    -0.055 C 
ATOM     39  H   LIG d   1       4.712  -2.938  -2.294  0.00  0.00     0.024 H 
ATOM     40  H   LIG d   1       3.054  -2.349  -2.028  0.00  0.00     0.024 H 
ATOM     41  H   LIG d   1       3.746  -2.348  -3.668  0.00  0.00     0.024 H 
ENDBRANCH   7  38
TORSDOF 4
ENDMDL
MODEL 2
REMARK VINA RESULT:      -5.5      2.108      4.284
REMARK  4 active torsions:
REMARK  status: ('A' for Active; 'I' for Inactive)
REMARK    1  A    between atoms: C_1  and  C_2 
REMARK    2  A    between atoms: C_8  and  C_19 
REMARK    3  A    between atoms: C_13  and  C_17 
REMARK    4  A    between atoms: C_13  and  C_18 
ROOT
ATOM      1  C   LIG d   1       4.711  -0.583  -6.714  0.00  0.00     0.015 C 
ATOM      2  H   LIG d   1       5.649  -0.788  -6.432  0.00  0.00     0.037 H 
ATOM      3  C   LIG d   1       3.992  -1.891  -7.034  0.00  0.00    -0.037 C 
ATOM      4  C   LIG d   1       5.018  -3.018  -7.174  0.00  0.00     0.007 C 
ATOM      5  C   LIG d   1       4.805  -4.066  -6.115  0.00  0.00     0.137 C 
ATOM      6  O   LIG d   1       4.318  -5.131  -6.424  0.00  0.00    -0.297 OA
ATOM      7  C   LIG d   1       5.185  -3.822  -4.677  0.00  0.00     0.018 C 
ATOM      8  H   LIG d   1       5.118  -4.678  -4.165  0.00  0.00     0.038 H 
ATOM      9  C   LIG d   1       4.225  -2.794  -4.075  0.00  0.00    -0.025 C 
ATOM     10  C   LIG d   1       4.704  -2.362  -2.718  0.00  0.00    -0.087 C 
ATOM     11  C   LIG d   1       4.551  -1.144  -2.274  0.00  0.00    -0.082 C 
ATOM     12  C   LIG d   1       3.861  -0.054  -3.061  0.00  0.00    -0.010 C 
ATOM     13  C   LIG d   1       4.691   0.316  -4.277  0.00  0.00     0.015 C 
ATOM     14  C   LIG d   1       4.007   0.159  -5.601  0.00  0.00     0.137 C 
ATOM     15  O   LIG d   1       2.932   0.655  -5.836  0.00  0.00    -0.297 OA
ATOM     16  H   LIG d   1       3.468  -1.778  -7.991  0.00  0.00     0.028 H 
ATOM     17  H   LIG d   1       3.267  -2.131  -6.265  0.00  0.00     0.028 H 
ATOM     18  H   LIG d   1       5.940  -2.642  -7.084  0.00  0.00     0.034 H 
ATOM     19  H   LIG d   1       4.890  -3.486  -8.157  0.00  0.00     0.034 H 
ATOM     20  H   LIG d   1       4.180  -1.933  -4.738  0.00  0.00     0.031 H 
ATOM     21  H   LIG d   1       3.235  -3.247  -3.984  0.00  0.00     0.031 H 
ATOM     22  H   LIG d   1       5.177  -3.093  -2.066  0.00  0.00     0.057 H 
ATOM     23  H   LIG d   1       4.954  -0.895  -1.294  0.00  0.00     0.057 H 
ATOM     24  H   LIG d   1       5.499  -0.274  -4.321  0.00  0.00     0.035 H 
ATOM     25  H   LIG d   1       5.017   1.365  -4.178  0.00  0.00     0.035 H 
ENDROOT
BRANCH  12  26
ATOM     26  C   LIG d   1       3.780   1.187  -2.145  0.00  0.00    -0.056 C 
ATOM     27  H   LIG d   1       3.309   0.913  -1.203  0.00  0.00     0.024 H 
ATOM     28  H   LIG d   1       4.785   1.563  -1.954  0.00  0.00     0.024 H 
ATOM     29  H   LIG d   1       3.190   1.963  -2.636  0.00  0.00     0.024 H 
ENDBRANCH  12  26
BRANCH  12  30
ATOM     30  C   LIG d   1       2.436  -0.476  -3.397  0.00  0.00    -0.056 C 
ATOM     31  H   LIG d   1       2.260  -0.343  -4.465  0.00  0.00     0.024 H 
ATOM     32  H   LIG d   1       2.296  -1.524  -3.133  0.00  0.00     0.024 H 
ATOM     33  H   LIG d   1       1.732   0.137  -2.834  0.00  0.00     0.024 H 
ENDBRANCH  12  30
BRANCH   1  34
ATOM     34  C   LIG d   1       4.737   0.303  -7.963  0.00  0.00    -0.056 C 
ATOM     35  H   LIG d   1       4.792  -0.325  -8.853  0.00  0.00     0.024 H 
ATOM     36  H   LIG d   1       3.829   0.906  -8.000  0.00  0.00     0.024 H 
ATOM     37  H   LIG d   1       5.606   0.959  -7.926  0.00  0.00     0.024 H 
ENDBRANCH   1  34
BRANCH   7  38
ATOM     38  C   LIG d   1       6.620  -3.309  -4.590  0.00  0.00    -0.055 C 
ATOM     39  H   LIG d   1       6.941  -2.960  -5.571  0.00  0.00     0.024 H 
ATOM     40  H   LIG d   1       6.668  -2.485  -3.878  0.00  0.00     0.024 H 
ATOM     41  H   LIG d   1       7.275  -4.114  -4.258  0.00  0.00     0.024 H 
ENDBRANCH   7  38
TORSDOF 4
ENDMDL
MODEL 3
REMARK VINA RESULT:      -5.3      1.853      2.961
REMARK  4 active torsions:
REMARK  status: ('A' for Active; 'I' for Inactive)
REMARK    1  A    between atoms: C_1  and  C_2 
REMARK    2  A    between atoms: C_8  and  C_19 
REMARK    3  A    between atoms: C_13  and  C_17 
REMARK    4  A    between atoms: C_13  and  C_18 
ROOT
ATOM      1  C   LIG d   1       7.128   0.560  -5.014  0.00  0.00     0.015 C 
ATOM      2  H   LIG d   1       6.208   0.655  -5.397  0.00  0.00     0.037 H 
ATOM      3  C   LIG d   1       7.076   0.851  -3.516  0.00  0.00    -0.037 C 
ATOM      4  C   LIG d   1       5.749   1.535  -3.174  0.00  0.00     0.007 C 
ATOM      5  C   LIG d   1       4.934   0.678  -2.245  0.00  0.00     0.137 C 
ATOM      6  O   LIG d   1       4.836   0.993  -1.079  0.00  0.00    -0.297 OA
ATOM      7  C   LIG d   1       4.233  -0.566  -2.729  0.00  0.00     0.018 C 
ATOM      8  H   LIG d   1       3.622  -0.904  -2.014  0.00  0.00     0.038 H 
ATOM      9  C   LIG d   1       5.280  -1.635  -3.050  0.00  0.00    -0.025 C 
ATOM     10  C   LIG d   1       4.639  -2.805  -3.741  0.00  0.00    -0.087 C 
ATOM     11  C   LIG d   1       5.247  -3.490  -4.672  0.00  0.00    -0.082 C 
ATOM     12  C   LIG d   1       6.656  -3.197  -5.132  0.00  0.00    -0.010 C 
ATOM     13  C   LIG d   1       6.701  -1.861  -5.853  0.00  0.00     0.015 C 
ATOM     14  C   LIG d   1       7.633  -0.842  -5.271  0.00  0.00     0.137 C 
ATOM     15  O   LIG d   1       8.795  -1.080  -5.050  0.00  0.00    -0.297 OA
ATOM     16  H   LIG d   1       7.894   1.536  -3.264  0.00  0.00     0.028 H 
ATOM     17  H   LIG d   1       7.193  -0.059  -2.941  0.00  0.00     0.028 H 
ATOM     18  H   LIG d   1       5.231   1.695  -4.014  0.00  0.00     0.034 H 
ATOM     19  H   LIG d   1       5.966   2.485  -2.672  0.00  0.00     0.034 H 
ATOM     20  H   LIG d   1       6.036  -1.196  -3.697  0.00  0.00     0.031 H 
ATOM     21  H   LIG d   1       5.738  -1.970  -2.117  0.00  0.00     0.031 H 
ATOM     22  H   LIG d   1       3.639  -3.112  -3.444  0.00  0.00     0.057 H 
ATOM     23  H   LIG d   1       4.707  -4.304  -5.153  0.00  0.00     0.057 H 
ATOM     24  H   LIG d   1       5.794  -1.440  -5.831  0.00  0.00     0.035 H 
ATOM     25  H   LIG d   1       6.991  -2.035  -6.902  0.00  0.00     0.035 H 
ENDROOT
BRANCH  12  26
ATOM     26  C   LIG d   1       7.042  -4.297  -6.145  0.00  0.00    -0.056 C 
ATOM     27  H   LIG d   1       6.952  -3.905  -7.158  0.00  0.00     0.024 H 
ATOM     28  H   LIG d   1       8.069  -4.610  -5.966  0.00  0.00     0.024 H 
ATOM     29  H   LIG d   1       6.375  -5.152  -6.025  0.00  0.00     0.024 H 
ENDBRANCH  12  26
BRANCH  12  30
ATOM     30  C   LIG d   1       7.619  -3.291  -3.955  0.00  0.00    -0.056 C 
ATOM     31  H   LIG d   1       8.549  -2.780  -4.204  0.00  0.00     0.024 H 
ATOM     32  H   LIG d   1       7.170  -2.822  -3.080  0.00  0.00     0.024 H 
ATOM     33  H   LIG d   1       7.827  -4.339  -3.739  0.00  0.00     0.024 H 
ENDBRANCH  12  30
BRANCH   1  34
ATOM     34  C   LIG d   1       8.068   1.558  -5.695  0.00  0.00    -0.056 C 
ATOM     35  H   LIG d   1       7.694   2.571  -5.544  0.00  0.00     0.024 H 
ATOM     36  H   LIG d   1       9.066   1.472  -5.263  0.00  0.00     0.024 H 
ATOM     37  H   LIG d   1       8.115   1.344  -6.763  0.00  0.00     0.024 H 
ENDBRANCH   1  34
BRANCH   7  38
ATOM     38  C   LIG d   1       3.408  -0.255  -3.975  0.00  0.00    -0.055 C 
ATOM     39  H   LIG d   1       3.259   0.822  -4.053  0.00  0.00     0.024 H 
ATOM     40  H   LIG d   1       3.935  -0.614  -4.859  0.00  0.00     0.024 H 
ATOM     41  H   LIG d   1       2.440  -0.751  -3.903  0.00  0.00     0.024 H 
ENDBRANCH   7  38
TORSDOF 4
ENDMDL
MODEL 4
REMARK VINA RESULT:      -5.2      2.351      4.903
REMARK  4 active torsions:
REMARK  status: ('A' for Active; 'I' for Inactive)
REMARK    1  A    between atoms: C_1  and  C_2 
REMARK    2  A    between atoms: C_8  and  C_19 
REMARK    3  A    between atoms: C_13  and  C_17 
REMARK    4  A    between atoms: C_13  and  C_18 
ROOT
ATOM      1  C   LIG d   1       5.316  -3.006  -5.400  0.00  0.00     0.015 C 
ATOM      2  H   LIG d   1       5.476  -2.305  -6.096  0.00  0.00     0.037 H 
ATOM      3  C   LIG d   1       6.660  -3.482  -4.855  0.00  0.00    -0.037 C 
ATOM      4  C   LIG d   1       7.783  -3.017  -5.786  0.00  0.00     0.007 C 
ATOM      5  C   LIG d   1       8.709  -2.072  -5.070  0.00  0.00     0.137 C 
ATOM      6  O   LIG d   1       9.808  -2.458  -4.736  0.00  0.00    -0.297 OA
ATOM      7  C   LIG d   1       8.304  -0.654  -4.760  0.00  0.00     0.018 C 
ATOM      8  H   LIG d   1       9.099  -0.145  -4.432  0.00  0.00     0.038 H 
ATOM      9  C   LIG d   1       7.227  -0.670  -3.673  0.00  0.00    -0.025 C 
ATOM     10  C   LIG d   1       6.641   0.702  -3.494  0.00  0.00    -0.087 C 
ATOM     11  C   LIG d   1       5.384   0.897  -3.204  0.00  0.00    -0.082 C 
ATOM     12  C   LIG d   1       4.396  -0.227  -2.995  0.00  0.00    -0.010 C 
ATOM     13  C   LIG d   1       4.153  -0.958  -4.304  0.00  0.00     0.015 C 
ATOM     14  C   LIG d   1       4.464  -2.424  -4.294  0.00  0.00     0.137 C 
ATOM     15  O   LIG d   1       4.011  -3.176  -3.467  0.00  0.00    -0.297 OA
ATOM     16  H   LIG d   1       6.660  -4.578  -4.831  0.00  0.00     0.028 H 
ATOM     17  H   LIG d   1       6.822  -3.111  -3.850  0.00  0.00     0.028 H 
ATOM     18  H   LIG d   1       7.388  -2.555  -6.579  0.00  0.00     0.034 H 
ATOM     19  H   LIG d   1       8.358  -3.895  -6.103  0.00  0.00     0.034 H 
ATOM     20  H   LIG d   1       6.445  -1.366  -3.970  0.00  0.00     0.031 H 
ATOM     21  H   LIG d   1       7.679  -0.997  -2.734  0.00  0.00     0.031 H 
ATOM     22  H   LIG d   1       7.290   1.570  -3.588  0.00  0.00     0.057 H 
ATOM     23  H   LIG d   1       5.023   1.921  -3.124  0.00  0.00     0.057 H 
ATOM     24  H   LIG d   1       4.734  -0.565  -5.017  0.00  0.00     0.035 H 
ATOM     25  H   LIG d   1       3.096  -0.830  -4.589  0.00  0.00     0.035 H 
ENDROOT
BRANCH  12  26
ATOM     26  C   LIG d   1       3.063   0.414  -2.554  0.00  0.00    -0.056 C 
ATOM     27  H   LIG d   1       3.227   1.463  -2.310  0.00  0.00     0.024 H 
ATOM     28  H   LIG d   1       2.339   0.339  -3.364  0.00  0.00     0.024 H 
ATOM     29  H   LIG d   1       2.681  -0.108  -1.676  0.00  0.00     0.024 H 
ENDBRANCH  12  26
BRANCH  12  30
ATOM     30  C   LIG d   1       4.871  -1.134  -1.866  0.00  0.00    -0.056 C 
ATOM     31  H   LIG d   1       5.578  -1.864  -2.259  0.00  0.00     0.024 H 
ATOM     32  H   LIG d   1       5.358  -0.534  -1.097  0.00  0.00     0.024 H 
ATOM     33  H   LIG d   1       4.015  -1.653  -1.432  0.00  0.00     0.024 H 
ENDBRANCH  12  30
BRANCH   1  34
ATOM     34  C   LIG d   1       4.573  -4.188  -6.029  0.00  0.00    -0.056 C 
ATOM     35  H   LIG d   1       3.498  -4.019  -5.961  0.00  0.00     0.024 H 
ATOM     36  H   LIG d   1       4.860  -4.282  -7.077  0.00  0.00     0.024 H 
ATOM     37  H   LIG d   1       4.831  -5.104  -5.498  0.00  0.00     0.024 H 
ENDBRANCH   1  34
BRANCH   7  38
ATOM     38  C   LIG d   1       7.766   0.028  -6.015  0.00  0.00    -0.055 C 
ATOM     39  H   LIG d   1       7.943   1.101  -5.950  0.00  0.00     0.024 H 
ATOM     40  H   LIG d   1       8.275  -0.372  -6.892  0.00  0.00     0.024 H 
ATOM     41  H   LIG d   1       6.695  -0.159  -6.100  0.00  0.00     0.024 H 
ENDBRANCH   7  38
TORSDOF 4
ENDMDL
MODEL 5
REMARK VINA RESULT:      -4.8      1.799      5.016
REMARK  4 active torsions:
REMARK  status: ('A' for Active; 'I' for Inactive)
REMARK    1  A    between atoms: C_1  and  C_2 
REMARK    2  A    between atoms: C_8  and  C_19 
REMARK    3  A    between atoms: C_13  and  C_17 
REMARK    4  A    between atoms: C_13  and  C_18 
ROOT
ATOM      1  C   LIG d   1       7.638   0.474  -4.346  0.00  0.00     0.015 C 
ATOM      2  H   LIG d   1       8.227  -0.317  -4.180  0.00  0.00     0.037 H 
ATOM      3  C   LIG d   1       7.488   0.675  -5.852  0.00  0.00    -0.037 C 
ATOM      4  C   LIG d   1       8.554  -0.143  -6.585  0.00  0.00     0.007 C 
ATOM      5  C   LIG d   1       7.915  -1.196  -7.449  0.00  0.00     0.137 C 
ATOM      6  O   LIG d   1       7.899  -1.048  -8.651  0.00  0.00    -0.297 OA
ATOM      7  C   LIG d   1       7.294  -2.434  -6.854  0.00  0.00     0.018 C 
ATOM      8  H   LIG d   1       7.070  -3.078  -7.584  0.00  0.00     0.038 H 
ATOM      9  C   LIG d   1       6.014  -2.043  -6.111  0.00  0.00    -0.025 C 
ATOM     10  C   LIG d   1       5.488  -3.208  -5.323  0.00  0.00    -0.087 C 
ATOM     11  C   LIG d   1       4.900  -3.065  -4.166  0.00  0.00    -0.082 C 
ATOM     12  C   LIG d   1       4.666  -1.722  -3.514  0.00  0.00    -0.010 C 
ATOM     13  C   LIG d   1       5.991  -1.104  -3.104  0.00  0.00     0.015 C 
ATOM     14  C   LIG d   1       6.291   0.238  -3.699  0.00  0.00     0.137 C 
ATOM     15  O   LIG d   1       5.519   1.162  -3.632  0.00  0.00    -0.297 OA
ATOM     16  H   LIG d   1       7.645   1.736  -6.081  0.00  0.00     0.028 H 
ATOM     17  H   LIG d   1       6.496   0.390  -6.182  0.00  0.00     0.028 H 
ATOM     18  H   LIG d   1       9.153  -0.583  -5.918  0.00  0.00     0.034 H 
ATOM     19  H   LIG d   1       9.130   0.533  -7.229  0.00  0.00     0.034 H 
ATOM     20  H   LIG d   1       6.242  -1.218  -5.440  0.00  0.00     0.031 H 
ATOM     21  H   LIG d   1       5.265  -1.730  -6.843  0.00  0.00     0.031 H 
ATOM     22  H   LIG d   1       5.578  -4.210  -5.736  0.00  0.00     0.057 H 
ATOM     23  H   LIG d   1       4.575  -3.959  -3.636  0.00  0.00     0.057 H 
ATOM     24  H   LIG d   1       6.740  -1.701  -3.393  0.00  0.00     0.035 H 
ATOM     25  H   LIG d   1       6.012  -1.008  -2.006  0.00  0.00     0.035 H 
ENDROOT
BRANCH  12  26
ATOM     26  C   LIG d   1       3.843  -1.976  -2.232  0.00  0.00    -0.056 C 
ATOM     27  H   LIG d   1       2.787  -2.049  -2.487  0.00  0.00     0.024 H 
ATOM     28  H   LIG d   1       4.170  -2.906  -1.769  0.00  0.00     0.024 H 
ATOM     29  H   LIG d   1       3.993  -1.151  -1.535  0.00  0.00     0.024 H 
ENDBRANCH  12  26
BRANCH  12  30
ATOM     30  C   LIG d   1       3.834  -0.835  -4.432  0.00  0.00    -0.056 C 
ATOM     31  H   LIG d   1       2.781  -0.918  -4.162  0.00  0.00     0.024 H 
ATOM     32  H   LIG d   1       4.156   0.201  -4.326  0.00  0.00     0.024 H 
ATOM     33  H   LIG d   1       3.970  -1.153  -5.466  0.00  0.00     0.024 H 
ENDBRANCH  12  30
BRANCH   1  34
ATOM     34  C   LIG d   1       8.273   1.722  -3.726  0.00  0.00    -0.056 C 
ATOM     35  H   LIG d   1       8.100   2.580  -4.377  0.00  0.00     0.024 H 
ATOM     36  H   LIG d   1       7.826   1.912  -2.750  0.00  0.00     0.024 H 
ATOM     37  H   LIG d   1       9.345   1.565  -3.609  0.00  0.00     0.024 H 
ENDBRANCH   1  34
BRANCH   7  38
ATOM     38  C   LIG d   1       8.270  -3.103  -5.890  0.00  0.00    -0.055 C 
ATOM     39  H   LIG d   1       8.676  -4.004  -6.350  0.00  0.00     0.024 H 
ATOM     40  H   LIG d   1       9.084  -2.414  -5.661  0.00  0.00     0.024 H 
ATOM     41  H   LIG d   1       7.749  -3.368  -4.970  0.00  0.00     0.024 H 
ENDBRANCH   7  38
TORSDOF 4
ENDMDL
MODEL 6
REMARK VINA RESULT:      -4.7      1.917      4.673
REMARK  4 active torsions:
REMARK  status: ('A' for Active; 'I' for Inactive)
REMARK    1  A    between atoms: C_1  and  C_2 
REMARK    2  A    between atoms: C_8  and  C_19 
REMARK    3  A    between atoms: C_13  and  C_17 
REMARK    4  A    between atoms: C_13  and  C_18 
ROOT
ATOM      1  C   LIG d   1       6.038  -1.630  -6.761  0.00  0.00     0.015 C 
ATOM      2  H   LIG d   1       5.231  -2.022  -7.204  0.00  0.00     0.037 H 
ATOM      3  C   LIG d   1       6.243  -0.206  -7.272  0.00  0.00    -0.037 C 
ATOM      4  C   LIG d   1       5.398   0.013  -8.529  0.00  0.00     0.007 C 
ATOM      5  C   LIG d   1       4.362   1.079  -8.295  0.00  0.00     0.137 C 
ATOM      6  O   LIG d   1       4.511   2.171  -8.796  0.00  0.00    -0.297 OA
ATOM      7  C   LIG d   1       3.141   0.820  -7.450  0.00  0.00     0.018 C 
ATOM      8  H   LIG d   1       2.503   1.584  -7.544  0.00  0.00     0.038 H 
ATOM      9  C   LIG d   1       3.565   0.689  -5.986  0.00  0.00    -0.025 C 
ATOM     10  C   LIG d   1       2.414   0.214  -5.146  0.00  0.00    -0.087 C 
ATOM     11  C   LIG d   1       2.571  -0.583  -4.125  0.00  0.00    -0.082 C 
ATOM     12  C   LIG d   1       3.919  -1.090  -3.667  0.00  0.00    -0.010 C 
ATOM     13  C   LIG d   1       4.502  -2.033  -4.705  0.00  0.00     0.015 C 
ATOM     14  C   LIG d   1       5.836  -1.638  -5.262  0.00  0.00     0.137 C 
ATOM     15  O   LIG d   1       6.781  -1.381  -4.557  0.00  0.00    -0.297 OA
ATOM     16  H   LIG d   1       7.300  -0.078  -7.537  0.00  0.00     0.028 H 
ATOM     17  H   LIG d   1       5.985   0.519  -6.509  0.00  0.00     0.028 H 
ATOM     18  H   LIG d   1       4.941  -0.841  -8.776  0.00  0.00     0.034 H 
ATOM     19  H   LIG d   1       6.058   0.341  -9.341  0.00  0.00     0.034 H 
ATOM     20  H   LIG d   1       4.383  -0.026  -5.925  0.00  0.00     0.031 H 
ATOM     21  H   LIG d   1       3.898   1.666  -5.627  0.00  0.00     0.031 H 
ATOM     22  H   LIG d   1       1.410   0.561  -5.380  0.00  0.00     0.057 H 
ATOM     23  H   LIG d   1       1.687  -0.914  -3.584  0.00  0.00     0.057 H 
ATOM     24  H   LIG d   1       3.886  -2.083  -5.492  0.00  0.00     0.035 H 
ATOM     25  H   LIG d   1       4.597  -3.036  -4.258  0.00  0.00     0.035 H 
ENDROOT
BRANCH  12  26
ATOM     26  C   LIG d   1       3.687  -1.895  -2.370  0.00  0.00    -0.056 C 
ATOM     27  H   LIG d   1       2.865  -1.452  -1.809  0.00  0.00     0.024 H 
ATOM     28  H   LIG d   1       3.440  -2.926  -2.623  0.00  0.00     0.024 H 
ATOM     29  H   LIG d   1       4.593  -1.878  -1.763  0.00  0.00     0.024 H 
ENDBRANCH  12  26
BRANCH  12  30
ATOM     30  C   LIG d   1       4.829   0.085  -3.327  0.00  0.00    -0.056 C 
ATOM     31  H   LIG d   1       4.881   0.203  -2.244  0.00  0.00     0.024 H 
ATOM     32  H   LIG d   1       5.828  -0.103  -3.721  0.00  0.00     0.024 H 
ATOM     33  H   LIG d   1       4.429   0.995  -3.773  0.00  0.00     0.024 H 
ENDBRANCH  12  30
BRANCH   1  34
ATOM     34  C   LIG d   1       7.268  -2.476  -7.100  0.00  0.00    -0.056 C 
ATOM     35  H   LIG d   1       7.628  -2.211  -8.095  0.00  0.00     0.024 H 
ATOM     36  H   LIG d   1       8.053  -2.287  -6.368  0.00  0.00     0.024 H 
ATOM     37  H   LIG d   1       7.000  -3.532  -7.080  0.00  0.00     0.024 H 
ENDBRANCH   1  34
BRANCH   7  38
ATOM     38  C   LIG d   1       2.446  -0.460  -7.906  0.00  0.00    -0.055 C 
ATOM     39  H   LIG d   1       1.433  -0.486  -7.506  0.00  0.00     0.024 H 
ATOM     40  H   LIG d   1       2.407  -0.483  -8.996  0.00  0.00     0.024 H 
ATOM     41  H   LIG d   1       3.002  -1.325  -7.545  0.00  0.00     0.024 H 
ENDBRANCH   7  38
TORSDOF 4
ENDMDL
MODEL 7
REMARK VINA RESULT:      -4.6      1.560      3.842
REMARK  4 active torsions:
REMARK  status: ('A' for Active; 'I' for Inactive)
REMARK    1  A    between atoms: C_1  and  C_2 
REMARK    2  A    between atoms: C_8  and  C_19 
REMARK    3  A    between atoms: C_13  and  C_17 
REMARK    4  A    between atoms: C_13  and  C_18 
ROOT
ATOM      1  C   LIG d   1       6.773  -1.120  -4.939  0.00  0.00     0.015 C 
ATOM      2  H   LIG d   1       6.640  -0.227  -4.507  0.00  0.00     0.037 H 
ATOM      3  C   LIG d   1       6.007  -2.176  -4.147  0.00  0.00    -0.037 C 
ATOM      4  C   LIG d   1       5.607  -1.602  -2.784  0.00  0.00     0.007 C 
ATOM      5  C   LIG d   1       4.110  -1.539  -2.652  0.00  0.00     0.137 C 
ATOM      6  O   LIG d   1       3.543  -2.335  -1.937  0.00  0.00    -0.297 OA
ATOM      7  C   LIG d   1       3.297  -0.505  -3.389  0.00  0.00     0.018 C 
ATOM      8  H   LIG d   1       2.355  -0.521  -3.053  0.00  0.00     0.038 H 
ATOM      9  C   LIG d   1       3.308  -0.833  -4.883  0.00  0.00    -0.025 C 
ATOM     10  C   LIG d   1       2.697   0.290  -5.672  0.00  0.00    -0.087 C 
ATOM     11  C   LIG d   1       3.124   0.629  -6.858  0.00  0.00    -0.082 C 
ATOM     12  C   LIG d   1       4.252  -0.082  -7.569  0.00  0.00    -0.010 C 
ATOM     13  C   LIG d   1       5.563   0.166  -6.844  0.00  0.00     0.015 C 
ATOM     14  C   LIG d   1       6.282  -1.060  -6.368  0.00  0.00     0.137 C 
ATOM     15  O   LIG d   1       6.537  -1.984  -7.099  0.00  0.00    -0.297 OA
ATOM     16  H   LIG d   1       6.666  -3.036  -3.981  0.00  0.00     0.028 H 
ATOM     17  H   LIG d   1       5.130  -2.506  -4.691  0.00  0.00     0.028 H 
ATOM     18  H   LIG d   1       5.986  -0.683  -2.686  0.00  0.00     0.034 H 
ATOM     19  H   LIG d   1       5.998  -2.262  -2.000  0.00  0.00     0.034 H 
ATOM     20  H   LIG d   1       4.339  -0.983  -5.197  0.00  0.00     0.031 H 
ATOM     21  H   LIG d   1       2.733  -1.747  -5.047  0.00  0.00     0.031 H 
ATOM     22  H   LIG d   1       1.852   0.832  -5.253  0.00  0.00     0.057 H 
ATOM     23  H   LIG d   1       2.655   1.476  -7.355  0.00  0.00     0.057 H 
ATOM     24  H   LIG d   1       5.392   0.713  -6.024  0.00  0.00     0.035 H 
ATOM     25  H   LIG d   1       6.238   0.724  -7.514  0.00  0.00     0.035 H 
ENDROOT
BRANCH  12  26
ATOM     26  C   LIG d   1       4.363   0.538  -8.979  0.00  0.00    -0.056 C 
ATOM     27  H   LIG d   1       4.464   1.619  -8.893  0.00  0.00     0.024 H 
ATOM     28  H   LIG d   1       5.237   0.131  -9.486  0.00  0.00     0.024 H 
ATOM     29  H   LIG d   1       3.467   0.300  -9.553  0.00  0.00     0.024 H 
ENDBRANCH  12  26
BRANCH  12  30
ATOM     30  C   LIG d   1       3.914  -1.558  -7.736  0.00  0.00    -0.056 C 
ATOM     31  H   LIG d   1       3.036  -1.800  -7.138  0.00  0.00     0.024 H 
ATOM     32  H   LIG d   1       3.707  -1.767  -8.786  0.00  0.00     0.024 H 
ATOM     33  H   LIG d   1       4.758  -2.164  -7.406  0.00  0.00     0.024 H 
ENDBRANCH  12  30
BRANCH   1  34
ATOM     34  C   LIG d   1       8.264  -1.467  -4.942  0.00  0.00    -0.056 C 
ATOM     35  H   LIG d   1       8.841  -0.590  -5.236  0.00  0.00     0.024 H 
ATOM     36  H   LIG d   1       8.567  -1.782  -3.942  0.00  0.00     0.024 H 
ATOM     37  H   LIG d   1       8.448  -2.277  -5.647  0.00  0.00     0.024 H 
ENDBRANCH   1  34
BRANCH   7  38
ATOM     38  C   LIG d   1       3.878   0.887  -3.157  0.00  0.00    -0.055 C 
ATOM     39  H   LIG d   1       3.892   1.436  -4.098  0.00  0.00     0.024 H 
ATOM     40  H   LIG d   1       3.263   1.422  -2.433  0.00  0.00     0.024 H 
ATOM     41  H   LIG d   1       4.895   0.797  -2.774  0.00  0.00     0.024 H 
ENDBRANCH   7  38
TORSDOF 4
ENDMDL
MODEL 8
REMARK VINA RESULT:      -4.3      9.930     11.903
REMARK  4 active torsions:
REMARK  status: ('A' for Active; 'I' for Inactive)
REMARK    1  A    between atoms: C_1  and  C_2 
REMARK    2  A    between atoms: C_8  and  C_19 
REMARK    3  A    between atoms: C_13  and  C_17 
REMARK    4  A    between atoms: C_13  and  C_18 
ROOT
ATOM      1  C   LIG d   1      10.999   6.399   0.479  0.00  0.00     0.015 C 
ATOM      2  H   LIG d   1      10.113   6.291   0.028  0.00  0.00     0.037 H 
ATOM      3  C   LIG d   1      12.078   5.747  -0.382  0.00  0.00    -0.037 C 
ATOM      4  C   LIG d   1      11.420   4.847  -1.432  0.00  0.00     0.007 C 
ATOM      5  C   LIG d   1      11.712   5.348  -2.820  0.00  0.00     0.137 C 
ATOM      6  O   LIG d   1      12.505   4.748  -3.512  0.00  0.00    -0.297 OA
ATOM      7  C   LIG d   1      11.040   6.579  -3.372  0.00  0.00     0.018 C 
ATOM      8  H   LIG d   1      11.238   6.656  -4.349  0.00  0.00     0.038 H 
ATOM      9  C   LIG d   1      11.581   7.812  -2.645  0.00  0.00    -0.025 C 
ATOM     10  C   LIG d   1      10.780   9.029  -3.009  0.00  0.00    -0.087 C 
ATOM     11  C   LIG d   1      10.532   9.988  -2.159  0.00  0.00    -0.082 C 
ATOM     12  C   LIG d   1      11.040   9.987  -0.736  0.00  0.00    -0.010 C 
ATOM     13  C   LIG d   1      10.365   8.882   0.058  0.00  0.00     0.015 C 
ATOM     14  C   LIG d   1      11.284   7.872   0.673  0.00  0.00     0.137 C 
ATOM     15  O   LIG d   1      12.217   8.186   1.370  0.00  0.00    -0.297 OA
ATOM     16  H   LIG d   1      12.711   5.125   0.261  0.00  0.00     0.028 H 
ATOM     17  H   LIG d   1      12.697   6.498  -0.860  0.00  0.00     0.028 H 
ATOM     18  H   LIG d   1      10.431   4.835  -1.287  0.00  0.00     0.034 H 
ATOM     19  H   LIG d   1      11.833   3.836  -1.332  0.00  0.00     0.034 H 
ATOM     20  H   LIG d   1      11.515   7.637  -1.573  0.00  0.00     0.031 H 
ATOM     21  H   LIG d   1      12.623   7.962  -2.934  0.00  0.00     0.031 H 
ATOM     22  H   LIG d   1      10.408   9.132  -4.026  0.00  0.00     0.057 H 
ATOM     23  H   LIG d   1       9.916  10.824  -2.485  0.00  0.00     0.057 H 
ATOM     24  H   LIG d   1       9.758   8.362  -0.545  0.00  0.00     0.035 H 
ATOM     25  H   LIG d   1       9.766   9.340   0.862  0.00  0.00     0.035 H 
ENDROOT
BRANCH  12  26
ATOM     26  C   LIG d   1      10.636  11.339  -0.107  0.00  0.00    -0.056 C 
ATOM     27  H   LIG d   1      10.868  12.145  -0.801  0.00  0.00     0.024 H 
ATOM     28  H   LIG d   1       9.568  11.336   0.103  0.00  0.00     0.024 H 
ATOM     29  H   LIG d   1      11.189  11.487   0.821  0.00  0.00     0.024 H 
ENDBRANCH  12  26
BRANCH  12  30
ATOM     30  C   LIG d   1      12.562   9.906  -0.726  0.00  0.00    -0.056 C 
ATOM     31  H   LIG d   1      12.978  10.836  -1.114  0.00  0.00     0.024 H 
ATOM     32  H   LIG d   1      12.911   9.750   0.295  0.00  0.00     0.024 H 
ATOM     33  H   LIG d   1      12.886   9.074  -1.351  0.00  0.00     0.024 H 
ENDBRANCH  12  30
BRANCH   1  34
ATOM     34  C   LIG d   1      10.960   5.717   1.849  0.00  0.00    -0.056 C 
ATOM     35  H   LIG d   1      10.512   4.728   1.750  0.00  0.00     0.024 H 
ATOM     36  H   LIG d   1      11.975   5.618   2.236  0.00  0.00     0.024 H 
ATOM     37  H   LIG d   1      10.367   6.318   2.539  0.00  0.00     0.024 H 
ENDBRANCH   1  34
BRANCH   7  38
ATOM     38  C   LIG d   1       9.528   6.484  -3.183  0.00  0.00    -0.055 C 
ATOM     39  H   LIG d   1       9.110   5.809  -3.929  0.00  0.00     0.024 H 
ATOM     40  H   LIG d   1       9.310   6.104  -2.185  0.00  0.00     0.024 H 
ATOM     41  H   LIG d   1       9.085   7.473  -3.299  0.00  0.00     0.024 H 
ENDBRANCH   7  38
TORSDOF 4
ENDMDL
MODEL 9
REMARK VINA RESULT:      -4.3      9.476     11.040
REMARK  4 active torsions:
REMARK  status: ('A' for Active; 'I' for Inactive)
REMARK    1  A    between atoms: C_1  and  C_2 
REMARK    2  A    between atoms: C_8  and  C_19 
REMARK    3  A    between atoms: C_13  and  C_17 
REMARK    4  A    between atoms: C_13  and  C_18 
ROOT
ATOM      1  C   LIG d   1      10.966   8.236  -3.865  0.00  0.00     0.015 C 
ATOM      2  H   LIG d   1      11.849   7.854  -3.592  0.00  0.00     0.037 H 
ATOM      3  C   LIG d   1       9.934   7.113  -3.919  0.00  0.00    -0.037 C 
ATOM      4  C   LIG d   1      10.650   5.759  -3.901  0.00  0.00     0.007 C 
ATOM      5  C   LIG d   1      10.286   4.981  -2.667  0.00  0.00     0.137 C 
ATOM      6  O   LIG d   1       9.537   4.033  -2.762  0.00  0.00    -0.297 OA
ATOM      7  C   LIG d   1      10.832   5.351  -1.312  0.00  0.00     0.018 C 
ATOM      8  H   LIG d   1      10.608   4.631  -0.655  0.00  0.00     0.038 H 
ATOM      9  C   LIG d   1      10.196   6.667  -0.859  0.00  0.00    -0.025 C 
ATOM     10  C   LIG d   1      10.876   7.180   0.378  0.00  0.00    -0.087 C 
ATOM     11  C   LIG d   1      11.052   8.453   0.607  0.00  0.00    -0.082 C 
ATOM     12  C   LIG d   1      10.575   9.538  -0.330  0.00  0.00    -0.010 C 
ATOM     13  C   LIG d   1      11.364   9.491  -1.627  0.00  0.00     0.015 C 
ATOM     14  C   LIG d   1      10.552   9.298  -2.871  0.00  0.00     0.137 C 
ATOM     15  O   LIG d   1       9.609   9.999  -3.144  0.00  0.00    -0.297 OA
ATOM     16  H   LIG d   1       9.373   7.196  -4.857  0.00  0.00     0.028 H 
ATOM     17  H   LIG d   1       9.240   7.186  -3.089  0.00  0.00     0.028 H 
ATOM     18  H   LIG d   1      11.638   5.905  -3.919  0.00  0.00     0.034 H 
ATOM     19  H   LIG d   1      10.333   5.186  -4.781  0.00  0.00     0.034 H 
ATOM     20  H   LIG d   1      10.299   7.394  -1.662  0.00  0.00     0.031 H 
ATOM     21  H   LIG d   1       9.139   6.493  -0.648  0.00  0.00     0.031 H 
ATOM     22  H   LIG d   1      11.216   6.469   1.128  0.00  0.00     0.057 H 
ATOM     23  H   LIG d   1      11.584   8.749   1.510  0.00  0.00     0.057 H 
ATOM     24  H   LIG d   1      12.003   8.722  -1.600  0.00  0.00     0.035 H 
ATOM     25  H   LIG d   1      11.934  10.429  -1.728  0.00  0.00     0.035 H 
ENDROOT
BRANCH  12  26
ATOM     26  C   LIG d   1      10.867  10.891   0.355  0.00  0.00    -0.056 C 
ATOM     27  H   LIG d   1      11.894  10.901   0.717  0.00  0.00     0.024 H 
ATOM     28  H   LIG d   1      10.726  11.699  -0.362  0.00  0.00     0.024 H 
ATOM     29  H   LIG d   1      10.184  11.028   1.195  0.00  0.00     0.024 H 
ENDBRANCH  12  26
BRANCH  12  30
ATOM     30  C   LIG d   1       9.068   9.432  -0.525  0.00  0.00    -0.056 C 
ATOM     31  H   LIG d   1       8.691  10.358  -0.960  0.00  0.00     0.024 H 
ATOM     32  H   LIG d   1       8.845   8.600  -1.193  0.00  0.00     0.024 H 
ATOM     33  H   LIG d   1       8.587   9.262   0.439  0.00  0.00     0.024 H 
ENDBRANCH  12  30
BRANCH   1  34
ATOM     34  C   LIG d   1      11.094   8.876  -5.251  0.00  0.00    -0.056 C 
ATOM     35  H   LIG d   1      11.327   8.106  -5.986  0.00  0.00     0.024 H 
ATOM     36  H   LIG d   1      10.153   9.360  -5.517  0.00  0.00     0.024 H 
ATOM     37  H   LIG d   1      11.892   9.619  -5.236  0.00  0.00     0.024 H 
ENDBRANCH   1  34
BRANCH   7  38
ATOM     38  C   LIG d   1      12.350   5.501  -1.378  0.00  0.00    -0.055 C 
ATOM     39  H   LIG d   1      12.711   5.128  -2.336  0.00  0.00     0.024 H 
ATOM     40  H   LIG d   1      12.615   6.554  -1.274  0.00  0.00     0.024 H 
ATOM     41  H   LIG d   1      12.807   4.930  -0.570  0.00  0.00     0.024 H 
ENDBRANCH   7  38
TORSDOF 4
ENDMDL
