MODEL 1
REMARK VINA RESULT:      -6.8      0.000      0.000
REMARK  8 active torsions:
REMARK  status: ('A' for Active; 'I' for Inactive)
REMARK    1  A    between atoms: C_1  and  C_2 
REMARK    2  A    between atoms: C_4  and  C_33 
REMARK    3  A    between atoms: C_5  and  N_9 
REMARK    4  A    between atoms: C_6  and  C_8 
REMARK    5  A    between atoms: C_14  and  C_32 
REMARK    6  A    between atoms: C_15  and  C_25 
REMARK    7  A    between atoms: C_20  and  C_24 
REMARK    8  A    between atoms: C_25  and  C_26 
ROOT
ATOM      1  N   LIG d   1       1.541  -5.916  -9.946  0.00  0.00    -0.293 NA
ATOM      2  C   LIG d   1       2.693  -6.000  -9.039  0.00  0.00     0.044 C 
ATOM      3  C   LIG d   1       3.199  -4.612  -8.734  0.00  0.00     0.013 A 
ATOM      4  C   LIG d   1       4.015  -4.424  -7.653  0.00  0.00    -0.043 A 
ATOM      5  C   LIG d   1       4.493  -3.146  -7.352  0.00  0.00     0.022 A 
ATOM      6  C   LIG d   1       5.374  -2.924  -6.202  0.00  0.00    -0.029 A 
ATOM      7  C   LIG d   1       5.806  -1.657  -5.971  0.00  0.00     0.045 A 
ATOM      8  C   LIG d   1       5.405  -0.617  -6.834  0.00  0.00     0.341 A 
ATOM      9  O   LIG d   1       5.804   0.512  -6.609  0.00  0.00    -0.245 OA
ATOM     10  O   LIG d   1       4.606  -0.816  -7.886  0.00  0.00    -0.422 OA
ATOM     11  C   LIG d   1       4.146  -2.052  -8.165  0.00  0.00     0.146 A 
ATOM     12  C   LIG d   1       3.317  -2.260  -9.257  0.00  0.00     0.035 A 
ATOM     13  C   LIG d   1       2.845  -3.534  -9.540  0.00  0.00     0.134 A 
ATOM     14  O   LIG d   1       2.031  -3.710 -10.615  0.00  0.00    -0.473 OA
ATOM     15  C   LIG d   1       1.859  -5.047 -11.091  0.00  0.00     0.157 C 
ATOM     16  H   LIG d   1       3.486  -6.580  -9.510  0.00  0.00     0.051 H 
ATOM     17  H   LIG d   1       2.390  -6.487  -8.111  0.00  0.00     0.051 H 
ATOM     18  H   LIG d   1       4.288  -5.264  -7.031  0.00  0.00     0.063 H 
ATOM     19  H   LIG d   1       2.780  -5.387 -11.564  0.00  0.00     0.091 H 
ATOM     20  H   LIG d   1       1.042  -5.076 -11.811  0.00  0.00     0.091 H 
ENDROOT
BRANCH   1  21
ATOM     21  C   LIG d   1       1.148  -7.186 -10.376  0.00  0.00     0.038 A 
ATOM     22  C   LIG d   1      -0.174  -7.588 -10.240  0.00  0.00    -0.029 A 
ATOM     23  C   LIG d   1      -0.559  -8.844 -10.667  0.00  0.00    -0.054 A 
ATOM     24  C   LIG d   1       0.371  -9.701 -11.228  0.00  0.00    -0.050 A 
ATOM     25  H   LIG d   1      -1.586  -9.158 -10.561  0.00  0.00     0.062 H 
ATOM     26  C   LIG d   1       1.689  -9.303 -11.364  0.00  0.00    -0.054 A 
ATOM     27  C   LIG d   1       2.079  -8.047 -10.944  0.00  0.00    -0.029 A 
ATOM     28  H   LIG d   1       2.412  -9.974 -11.803  0.00  0.00     0.062 H 
BRANCH  22  29
ATOM     29  C   LIG d   1      -1.187  -6.656  -9.629  0.00  0.00    -0.038 C 
ATOM     30  H   LIG d   1      -0.804  -5.635  -9.654  0.00  0.00     0.028 H 
ATOM     31  H   LIG d   1      -2.117  -6.708 -10.195  0.00  0.00     0.028 H 
ATOM     32  H   LIG d   1      -1.373  -6.947  -8.596  0.00  0.00     0.028 H 
ENDBRANCH  22  29
BRANCH  24  33
ATOM     33  C   LIG d   1      -0.053 -11.070 -11.692  0.00  0.00    -0.040 C 
ATOM     34  H   LIG d   1      -0.445 -11.004 -12.707  0.00  0.00     0.028 H 
ATOM     35  H   LIG d   1       0.807 -11.741 -11.677  0.00  0.00     0.028 H 
ATOM     36  H   LIG d   1      -0.827 -11.456 -11.028  0.00  0.00     0.028 H 
ENDBRANCH  24  33
BRANCH  27  37
ATOM     37  C   LIG d   1       3.514  -7.612 -11.099  0.00  0.00    -0.038 C 
ATOM     38  H   LIG d   1       3.810  -7.701 -12.144  0.00  0.00     0.028 H 
ATOM     39  H   LIG d   1       3.615  -6.575 -10.779  0.00  0.00     0.028 H 
ATOM     40  H   LIG d   1       4.154  -8.246 -10.485  0.00  0.00     0.028 H 
ENDBRANCH  27  37
ENDBRANCH   1  21
BRANCH  12  41
ATOM     41  C   LIG d   1       2.927  -1.101 -10.139  0.00  0.00    -0.033 C 
ATOM     42  H   LIG d   1       2.340  -0.387  -9.561  0.00  0.00     0.028 H 
ATOM     43  H   LIG d   1       3.826  -0.613 -10.514  0.00  0.00     0.028 H 
ATOM     44  H   LIG d   1       2.334  -1.466 -10.977  0.00  0.00     0.028 H 
ENDBRANCH  12  41
BRANCH   6  45
ATOM     45  C   LIG d   1       5.780  -4.062  -5.300  0.00  0.00    -0.038 C 
ATOM     46  H   LIG d   1       5.636  -5.008  -5.820  0.00  0.00     0.028 H 
ATOM     47  H   LIG d   1       6.831  -3.953  -5.030  0.00  0.00     0.028 H 
ATOM     48  H   LIG d   1       5.170  -4.046  -4.397  0.00  0.00     0.028 H 
ENDBRANCH   6  45
BRANCH   7  49
ATOM     49  C   LIG d   1       6.708  -1.364  -4.800  0.00  0.00     0.005 C 
ATOM     50  H   LIG d   1       7.174  -2.290  -4.461  0.00  0.00     0.036 H 
ATOM     51  H   LIG d   1       7.481  -0.658  -5.104  0.00  0.00     0.036 H 
BRANCH  49  52
ATOM     52  C   LIG d   1       5.897  -0.769  -3.678  0.00  0.00    -0.043 A 
ATOM     53  C   LIG d   1       5.056  -1.573  -2.931  0.00  0.00    -0.058 A 
ATOM     54  C   LIG d   1       4.313  -1.026  -1.901  0.00  0.00    -0.061 A 
ATOM     55  H   LIG d   1       4.980  -2.626  -3.151  0.00  0.00     0.062 H 
ATOM     56  C   LIG d   1       4.410   0.324  -1.619  0.00  0.00    -0.062 A 
ATOM     57  H   LIG d   1       3.656  -1.654  -1.317  0.00  0.00     0.062 H 
ATOM     58  C   LIG d   1       5.251   1.127  -2.366  0.00  0.00    -0.061 A 
ATOM     59  H   LIG d   1       3.829   0.750  -0.814  0.00  0.00     0.062 H 
ATOM     60  C   LIG d   1       5.999   0.580  -3.392  0.00  0.00    -0.058 A 
ATOM     61  H   LIG d   1       5.327   2.181  -2.145  0.00  0.00     0.062 H 
ATOM     62  H   LIG d   1       6.659   1.207  -3.973  0.00  0.00     0.062 H 
ENDBRANCH  49  52
ENDBRANCH   7  49
TORSDOF 8
ENDMDL
MODEL 2
REMARK VINA RESULT:      -6.8      0.021      1.492
REMARK  8 active torsions:
REMARK  status: ('A' for Active; 'I' for Inactive)
REMARK    1  A    between atoms: C_1  and  C_2 
REMARK    2  A    between atoms: C_4  and  C_33 
REMARK    3  A    between atoms: C_5  and  N_9 
REMARK    4  A    between atoms: C_6  and  C_8 
REMARK    5  A    between atoms: C_14  and  C_32 
REMARK    6  A    between atoms: C_15  and  C_25 
REMARK    7  A    between atoms: C_20  and  C_24 
REMARK    8  A    between atoms: C_25  and  C_26 
ROOT
ATOM      1  N   LIG d   1       1.538  -5.896  -9.950  0.00  0.00    -0.293 NA
ATOM      2  C   LIG d   1       2.687  -5.987  -9.039  0.00  0.00     0.044 C 
ATOM      3  C   LIG d   1       3.200  -4.602  -8.732  0.00  0.00     0.013 A 
ATOM      4  C   LIG d   1       4.014  -4.419  -7.650  0.00  0.00    -0.043 A 
ATOM      5  C   LIG d   1       4.499  -3.143  -7.347  0.00  0.00     0.022 A 
ATOM      6  C   LIG d   1       5.377  -2.927  -6.194  0.00  0.00    -0.029 A 
ATOM      7  C   LIG d   1       5.815  -1.662  -5.961  0.00  0.00     0.045 A 
ATOM      8  C   LIG d   1       5.423  -0.619  -6.825  0.00  0.00     0.341 A 
ATOM      9  O   LIG d   1       5.826   0.508  -6.598  0.00  0.00    -0.245 OA
ATOM     10  O   LIG d   1       4.625  -0.814  -7.879  0.00  0.00    -0.422 OA
ATOM     11  C   LIG d   1       4.159  -2.047  -8.160  0.00  0.00     0.146 A 
ATOM     12  C   LIG d   1       3.331  -2.250  -9.254  0.00  0.00     0.035 A 
ATOM     13  C   LIG d   1       2.853  -3.521  -9.539  0.00  0.00     0.134 A 
ATOM     14  O   LIG d   1       2.041  -3.692 -10.616  0.00  0.00    -0.473 OA
ATOM     15  C   LIG d   1       1.864  -5.028 -11.093  0.00  0.00     0.157 C 
ATOM     16  H   LIG d   1       3.478  -6.571  -9.509  0.00  0.00     0.051 H 
ATOM     17  H   LIG d   1       2.379  -6.472  -8.113  0.00  0.00     0.051 H 
ATOM     18  H   LIG d   1       4.281  -5.260  -7.027  0.00  0.00     0.063 H 
ATOM     19  H   LIG d   1       2.784  -5.373 -11.564  0.00  0.00     0.091 H 
ATOM     20  H   LIG d   1       1.049  -5.053 -11.815  0.00  0.00     0.091 H 
ENDROOT
BRANCH   1  21
ATOM     21  C   LIG d   1       1.140  -7.164 -10.381  0.00  0.00     0.038 A 
ATOM     22  C   LIG d   1       2.066  -8.027 -10.951  0.00  0.00    -0.029 A 
ATOM     23  C   LIG d   1       1.669  -9.280 -11.376  0.00  0.00    -0.054 A 
ATOM     24  C   LIG d   1       0.350  -9.674 -11.235  0.00  0.00    -0.050 A 
ATOM     25  H   LIG d   1       2.388  -9.952 -11.820  0.00  0.00     0.062 H 
ATOM     26  C   LIG d   1      -0.575  -8.817 -10.667  0.00  0.00    -0.054 A 
ATOM     27  C   LIG d   1      -0.182  -7.564 -10.236  0.00  0.00    -0.029 A 
ATOM     28  H   LIG d   1      -1.603  -9.127 -10.558  0.00  0.00     0.062 H 
BRANCH  22  29
ATOM     29  C   LIG d   1       3.501  -7.598 -11.106  0.00  0.00    -0.038 C 
ATOM     30  H   LIG d   1       3.565  -6.512 -11.042  0.00  0.00     0.028 H 
ATOM     31  H   LIG d   1       4.101  -8.044 -10.311  0.00  0.00     0.028 H 
ATOM     32  H   LIG d   1       3.878  -7.928 -12.073  0.00  0.00     0.028 H 
ENDBRANCH  22  29
BRANCH  24  33
ATOM     33  C   LIG d   1      -0.079 -11.042 -11.699  0.00  0.00    -0.040 C 
ATOM     34  H   LIG d   1       0.333 -11.234 -12.690  0.00  0.00     0.028 H 
ATOM     35  H   LIG d   1       0.287 -11.795 -11.000  0.00  0.00     0.028 H 
ATOM     36  H   LIG d   1      -1.167 -11.086 -11.744  0.00  0.00     0.028 H 
ENDBRANCH  24  33
BRANCH  27  37
ATOM     37  C   LIG d   1      -1.190  -6.633  -9.612  0.00  0.00    -0.038 C 
ATOM     38  H   LIG d   1      -0.995  -5.612  -9.943  0.00  0.00     0.028 H 
ATOM     39  H   LIG d   1      -2.194  -6.928  -9.915  0.00  0.00     0.028 H 
ATOM     40  H   LIG d   1      -1.108  -6.684  -8.525  0.00  0.00     0.028 H 
ENDBRANCH  27  37
ENDBRANCH   1  21
BRANCH  12  41
ATOM     41  C   LIG d   1       2.950  -1.088 -10.136  0.00  0.00    -0.033 C 
ATOM     42  H   LIG d   1       2.453  -0.326  -9.537  0.00  0.00     0.028 H 
ATOM     43  H   LIG d   1       3.848  -0.667 -10.589  0.00  0.00     0.028 H 
ATOM     44  H   LIG d   1       2.275  -1.433 -10.919  0.00  0.00     0.028 H 
ENDBRANCH  12  41
BRANCH   6  45
ATOM     45  C   LIG d   1       5.775  -4.067  -5.292  0.00  0.00    -0.038 C 
ATOM     46  H   LIG d   1       5.422  -3.872  -4.280  0.00  0.00     0.028 H 
ATOM     47  H   LIG d   1       5.331  -4.992  -5.660  0.00  0.00     0.028 H 
ATOM     48  H   LIG d   1       6.861  -4.164  -5.287  0.00  0.00     0.028 H 
ENDBRANCH   6  45
BRANCH   7  49
ATOM     49  C   LIG d   1       6.716  -1.375  -4.788  0.00  0.00     0.005 C 
ATOM     50  H   LIG d   1       7.174  -2.303  -4.446  0.00  0.00     0.036 H 
ATOM     51  H   LIG d   1       7.495  -0.675  -5.091  0.00  0.00     0.036 H 
BRANCH  49  52
ATOM     52  C   LIG d   1       5.907  -0.771  -3.670  0.00  0.00    -0.043 A 
ATOM     53  C   LIG d   1       5.063  -1.569  -2.918  0.00  0.00    -0.058 A 
ATOM     54  C   LIG d   1       4.322  -1.016  -1.891  0.00  0.00    -0.061 A 
ATOM     55  H   LIG d   1       4.985  -2.624  -3.133  0.00  0.00     0.062 H 
ATOM     56  C   LIG d   1       4.422   0.336  -1.616  0.00  0.00    -0.062 A 
ATOM     57  H   LIG d   1       3.663  -1.639  -1.304  0.00  0.00     0.062 H 
ATOM     58  C   LIG d   1       5.265   1.133  -2.367  0.00  0.00    -0.061 A 
ATOM     59  H   LIG d   1       3.841   0.768  -0.814  0.00  0.00     0.062 H 
ATOM     60  C   LIG d   1       6.011   0.579  -3.390  0.00  0.00    -0.058 A 
ATOM     61  H   LIG d   1       5.343   2.188  -2.152  0.00  0.00     0.062 H 
ATOM     62  H   LIG d   1       6.673   1.201  -3.974  0.00  0.00     0.062 H 
ENDBRANCH  49  52
ENDBRANCH   7  49
TORSDOF 8
ENDMDL
MODEL 3
REMARK VINA RESULT:      -6.7      4.418      5.668
REMARK  8 active torsions:
REMARK  status: ('A' for Active; 'I' for Inactive)
REMARK    1  A    between atoms: C_1  and  C_2 
REMARK    2  A    between atoms: C_4  and  C_33 
REMARK    3  A    between atoms: C_5  and  N_9 
REMARK    4  A    between atoms: C_6  and  C_8 
REMARK    5  A    between atoms: C_14  and  C_32 
REMARK    6  A    between atoms: C_15  and  C_25 
REMARK    7  A    between atoms: C_20  and  C_24 
REMARK    8  A    between atoms: C_25  and  C_26 
ROOT
ATOM      1  N   LIG d   1       5.511  -9.885  -6.256  0.00  0.00    -0.293 NA
ATOM      2  C   LIG d   1       4.771  -8.628  -6.086  0.00  0.00     0.044 C 
ATOM      3  C   LIG d   1       5.724  -7.532  -5.680  0.00  0.00     0.013 A 
ATOM      4  C   LIG d   1       5.333  -6.228  -5.813  0.00  0.00    -0.043 A 
ATOM      5  C   LIG d   1       6.202  -5.197  -5.444  0.00  0.00     0.022 A 
ATOM      6  C   LIG d   1       5.800  -3.794  -5.575  0.00  0.00    -0.029 A 
ATOM      7  C   LIG d   1       6.692  -2.843  -5.192  0.00  0.00     0.045 A 
ATOM      8  C   LIG d   1       7.949  -3.230  -4.685  0.00  0.00     0.341 A 
ATOM      9  O   LIG d   1       8.734  -2.362  -4.348  0.00  0.00    -0.245 OA
ATOM     10  O   LIG d   1       8.317  -4.509  -4.561  0.00  0.00    -0.422 OA
ATOM     11  C   LIG d   1       7.474  -5.496  -4.924  0.00  0.00     0.146 A 
ATOM     12  C   LIG d   1       7.854  -6.824  -4.796  0.00  0.00     0.035 A 
ATOM     13  C   LIG d   1       6.984  -7.837  -5.172  0.00  0.00     0.134 A 
ATOM     14  O   LIG d   1       7.383  -9.130  -5.038  0.00  0.00    -0.473 OA
ATOM     15  C   LIG d   1       6.366 -10.134  -5.083  0.00  0.00     0.157 C 
ATOM     16  H   LIG d   1       4.012  -8.754  -5.314  0.00  0.00     0.051 H 
ATOM     17  H   LIG d   1       4.290  -8.360  -7.027  0.00  0.00     0.051 H 
ATOM     18  H   LIG d   1       4.355  -5.996  -6.207  0.00  0.00     0.063 H 
ATOM     19  H   LIG d   1       5.765 -10.085  -4.175  0.00  0.00     0.091 H 
ATOM     20  H   LIG d   1       6.826 -11.117  -5.168  0.00  0.00     0.091 H 
ENDROOT
BRANCH   1  21
ATOM     21  C   LIG d   1       4.639 -10.954  -6.475  0.00  0.00     0.038 A 
ATOM     22  C   LIG d   1       4.587 -11.566  -7.721  0.00  0.00    -0.029 A 
ATOM     23  C   LIG d   1       3.724 -12.623  -7.934  0.00  0.00    -0.054 A 
ATOM     24  C   LIG d   1       2.911 -13.072  -6.908  0.00  0.00    -0.050 A 
ATOM     25  H   LIG d   1       3.683 -13.099  -8.902  0.00  0.00     0.062 H 
ATOM     26  C   LIG d   1       2.961 -12.465  -5.666  0.00  0.00    -0.054 A 
ATOM     27  C   LIG d   1       3.826 -11.411  -5.446  0.00  0.00    -0.029 A 
ATOM     28  H   LIG d   1       2.325 -12.818  -4.868  0.00  0.00     0.062 H 
BRANCH  22  29
ATOM     29  C   LIG d   1       5.472 -11.077  -8.838  0.00  0.00    -0.038 C 
ATOM     30  H   LIG d   1       5.322 -11.701  -9.720  0.00  0.00     0.028 H 
ATOM     31  H   LIG d   1       5.218 -10.044  -9.077  0.00  0.00     0.028 H 
ATOM     32  H   LIG d   1       6.514 -11.133  -8.528  0.00  0.00     0.028 H 
ENDBRANCH  22  29
BRANCH  24  33
ATOM     33  C   LIG d   1       1.971 -14.225  -7.144  0.00  0.00    -0.040 C 
ATOM     34  H   LIG d   1       0.951 -13.850  -7.231  0.00  0.00     0.028 H 
ATOM     35  H   LIG d   1       2.250 -14.738  -8.066  0.00  0.00     0.028 H 
ATOM     36  H   LIG d   1       2.032 -14.922  -6.308  0.00  0.00     0.028 H 
ENDBRANCH  24  33
BRANCH  27  37
ATOM     37  C   LIG d   1       3.883 -10.754  -4.090  0.00  0.00    -0.038 C 
ATOM     38  H   LIG d   1       2.894 -10.379  -3.826  0.00  0.00     0.028 H 
ATOM     39  H   LIG d   1       4.206 -11.483  -3.347  0.00  0.00     0.028 H 
ATOM     40  H   LIG d   1       4.591  -9.924  -4.118  0.00  0.00     0.028 H 
ENDBRANCH  27  37
ENDBRANCH   1  21
BRANCH  12  41
ATOM     41  C   LIG d   1       9.215  -7.168  -4.246  0.00  0.00    -0.033 C 
ATOM     42  H   LIG d   1       9.113  -7.527  -3.223  0.00  0.00     0.028 H 
ATOM     43  H   LIG d   1       9.668  -7.945  -4.861  0.00  0.00     0.028 H 
ATOM     44  H   LIG d   1       9.846  -6.279  -4.260  0.00  0.00     0.028 H 
ENDBRANCH  12  41
BRANCH   6  45
ATOM     45  C   LIG d   1       4.447  -3.417  -6.122  0.00  0.00    -0.038 C 
ATOM     46  H   LIG d   1       4.302  -2.342  -6.025  0.00  0.00     0.028 H 
ATOM     47  H   LIG d   1       4.390  -3.698  -7.173  0.00  0.00     0.028 H 
ATOM     48  H   LIG d   1       3.671  -3.941  -5.564  0.00  0.00     0.028 H 
ENDBRANCH   6  45
BRANCH   7  49
ATOM     49  C   LIG d   1       6.340  -1.382  -5.308  0.00  0.00     0.005 C 
ATOM     50  H   LIG d   1       7.246  -0.805  -5.498  0.00  0.00     0.036 H 
ATOM     51  H   LIG d   1       5.641  -1.241  -6.132  0.00  0.00     0.036 H 
BRANCH  49  52
ATOM     52  C   LIG d   1       5.705  -0.915  -4.025  0.00  0.00    -0.043 A 
ATOM     53  C   LIG d   1       5.852   0.399  -3.619  0.00  0.00    -0.058 A 
ATOM     54  C   LIG d   1       5.267   0.828  -2.442  0.00  0.00    -0.061 A 
ATOM     55  H   LIG d   1       6.422   1.090  -4.222  0.00  0.00     0.062 H 
ATOM     56  C   LIG d   1       4.538  -0.057  -1.669  0.00  0.00    -0.062 A 
ATOM     57  H   LIG d   1       5.382   1.854  -2.125  0.00  0.00     0.062 H 
ATOM     58  C   LIG d   1       4.391  -1.370  -2.075  0.00  0.00    -0.061 A 
ATOM     59  H   LIG d   1       4.082   0.279  -0.749  0.00  0.00     0.062 H 
ATOM     60  C   LIG d   1       4.970  -1.798  -3.255  0.00  0.00    -0.058 A 
ATOM     61  H   LIG d   1       3.821  -2.060  -1.472  0.00  0.00     0.062 H 
ATOM     62  H   LIG d   1       4.852  -2.822  -3.574  0.00  0.00     0.062 H 
ENDBRANCH  49  52
ENDBRANCH   7  49
TORSDOF 8
ENDMDL
MODEL 4
REMARK VINA RESULT:      -6.7      6.770     12.985
REMARK  8 active torsions:
REMARK  status: ('A' for Active; 'I' for Inactive)
REMARK    1  A    between atoms: C_1  and  C_2 
REMARK    2  A    between atoms: C_4  and  C_33 
REMARK    3  A    between atoms: C_5  and  N_9 
REMARK    4  A    between atoms: C_6  and  C_8 
REMARK    5  A    between atoms: C_14  and  C_32 
REMARK    6  A    between atoms: C_15  and  C_25 
REMARK    7  A    between atoms: C_20  and  C_24 
REMARK    8  A    between atoms: C_25  and  C_26 
ROOT
ATOM      1  N   LIG d   1      11.006   4.953  -3.508  0.00  0.00    -0.293 NA
ATOM      2  C   LIG d   1       9.923   4.107  -2.989  0.00  0.00     0.044 C 
ATOM      3  C   LIG d   1       9.336   3.290  -4.113  0.00  0.00     0.013 A 
ATOM      4  C   LIG d   1       8.579   2.193  -3.812  0.00  0.00    -0.043 A 
ATOM      5  C   LIG d   1       8.027   1.421  -4.839  0.00  0.00     0.022 A 
ATOM      6  C   LIG d   1       7.208   0.244  -4.537  0.00  0.00    -0.029 A 
ATOM      7  C   LIG d   1       6.699  -0.457  -5.584  0.00  0.00     0.045 A 
ATOM      8  C   LIG d   1       6.965  -0.033  -6.901  0.00  0.00     0.341 A 
ATOM      9  O   LIG d   1       6.499  -0.676  -7.826  0.00  0.00    -0.245 OA
ATOM     10  O   LIG d   1       7.708   1.042  -7.180  0.00  0.00    -0.422 OA
ATOM     11  C   LIG d   1       8.240   1.777  -6.183  0.00  0.00     0.146 A 
ATOM     12  C   LIG d   1       9.011   2.893  -6.470  0.00  0.00     0.035 A 
ATOM     13  C   LIG d   1       9.557   3.646  -5.441  0.00  0.00     0.134 A 
ATOM     14  O   LIG d   1      10.312   4.734  -5.750  0.00  0.00    -0.473 OA
ATOM     15  C   LIG d   1      10.552   5.680  -4.706  0.00  0.00     0.157 C 
ATOM     16  H   LIG d   1       9.147   4.736  -2.553  0.00  0.00     0.051 H 
ATOM     17  H   LIG d   1      10.320   3.438  -2.224  0.00  0.00     0.051 H 
ATOM     18  H   LIG d   1       8.410   1.920  -2.781  0.00  0.00     0.063 H 
ATOM     19  H   LIG d   1       9.630   6.216  -4.480  0.00  0.00     0.091 H 
ATOM     20  H   LIG d   1      11.321   6.384  -5.019  0.00  0.00     0.091 H 
ENDROOT
BRANCH   1  21
ATOM     21  C   LIG d   1      11.463   5.838  -2.529  0.00  0.00     0.038 A 
ATOM     22  C   LIG d   1      12.784   5.781  -2.102  0.00  0.00    -0.029 A 
ATOM     23  C   LIG d   1      13.233   6.658  -1.134  0.00  0.00    -0.054 A 
ATOM     24  C   LIG d   1      12.369   7.592  -0.590  0.00  0.00    -0.050 A 
ATOM     25  H   LIG d   1      14.259   6.613  -0.801  0.00  0.00     0.062 H 
ATOM     26  C   LIG d   1      11.054   7.651  -1.013  0.00  0.00    -0.054 A 
ATOM     27  C   LIG d   1      10.600   6.780  -1.985  0.00  0.00    -0.029 A 
ATOM     28  H   LIG d   1      10.382   8.381  -0.587  0.00  0.00     0.062 H 
BRANCH  22  29
ATOM     29  C   LIG d   1      13.724   4.764  -2.694  0.00  0.00    -0.038 C 
ATOM     30  H   LIG d   1      14.753   5.096  -2.555  0.00  0.00     0.028 H 
ATOM     31  H   LIG d   1      13.583   3.805  -2.195  0.00  0.00     0.028 H 
ATOM     32  H   LIG d   1      13.519   4.654  -3.758  0.00  0.00     0.028 H 
ENDBRANCH  22  29
BRANCH  24  33
ATOM     33  C   LIG d   1      12.863   8.546   0.466  0.00  0.00    -0.040 C 
ATOM     34  H   LIG d   1      12.012   8.963   1.005  0.00  0.00     0.028 H 
ATOM     35  H   LIG d   1      13.511   8.014   1.163  0.00  0.00     0.028 H 
ATOM     36  H   LIG d   1      13.424   9.353  -0.007  0.00  0.00     0.028 H 
ENDBRANCH  24  33
BRANCH  27  37
ATOM     37  C   LIG d   1       9.168   6.850  -2.450  0.00  0.00    -0.038 C 
ATOM     38  H   LIG d   1       8.811   7.877  -2.375  0.00  0.00     0.028 H 
ATOM     39  H   LIG d   1       9.106   6.518  -3.486  0.00  0.00     0.028 H 
ATOM     40  H   LIG d   1       8.551   6.204  -1.824  0.00  0.00     0.028 H 
ENDBRANCH  27  37
ENDBRANCH   1  21
BRANCH  12  41
ATOM     41  C   LIG d   1       9.257   3.290  -7.904  0.00  0.00    -0.033 C 
ATOM     42  H   LIG d   1      10.320   3.202  -8.127  0.00  0.00     0.028 H 
ATOM     43  H   LIG d   1       8.691   2.632  -8.564  0.00  0.00     0.028 H 
ATOM     44  H   LIG d   1       8.937   4.320  -8.055  0.00  0.00     0.028 H 
ENDBRANCH  12  41
BRANCH   6  45
ATOM     45  C   LIG d   1       6.945  -0.180  -3.115  0.00  0.00    -0.038 C 
ATOM     46  H   LIG d   1       7.892  -0.309  -2.592  0.00  0.00     0.028 H 
ATOM     47  H   LIG d   1       6.354   0.586  -2.612  0.00  0.00     0.028 H 
ATOM     48  H   LIG d   1       6.396  -1.122  -3.112  0.00  0.00     0.028 H 
ENDBRANCH   6  45
BRANCH   7  49
ATOM     49  C   LIG d   1       5.854  -1.681  -5.339  0.00  0.00     0.005 C 
ATOM     50  H   LIG d   1       5.566  -2.120  -6.294  0.00  0.00     0.036 H 
ATOM     51  H   LIG d   1       6.426  -2.408  -4.762  0.00  0.00     0.036 H 
BRANCH  49  52
ATOM     52  C   LIG d   1       4.618  -1.292  -4.570  0.00  0.00    -0.043 A 
ATOM     53  C   LIG d   1       3.798  -0.284  -5.045  0.00  0.00    -0.058 A 
ATOM     54  C   LIG d   1       2.663   0.072  -4.340  0.00  0.00    -0.061 A 
ATOM     55  H   LIG d   1       4.044   0.224  -5.965  0.00  0.00     0.062 H 
ATOM     56  C   LIG d   1       2.348  -0.578  -3.161  0.00  0.00    -0.062 A 
ATOM     57  H   LIG d   1       2.022   0.859  -4.711  0.00  0.00     0.062 H 
ATOM     58  C   LIG d   1       3.168  -1.585  -2.687  0.00  0.00    -0.061 A 
ATOM     59  H   LIG d   1       1.462  -0.299  -2.611  0.00  0.00     0.062 H 
ATOM     60  C   LIG d   1       4.300  -1.945  -3.394  0.00  0.00    -0.058 A 
ATOM     61  H   LIG d   1       2.922  -2.093  -1.767  0.00  0.00     0.062 H 
ATOM     62  H   LIG d   1       4.938  -2.735  -3.027  0.00  0.00     0.062 H 
ENDBRANCH  49  52
ENDBRANCH   7  49
TORSDOF 8
ENDMDL
MODEL 5
REMARK VINA RESULT:      -6.7      6.771     12.904
REMARK  8 active torsions:
REMARK  status: ('A' for Active; 'I' for Inactive)
REMARK    1  A    between atoms: C_1  and  C_2 
REMARK    2  A    between atoms: C_4  and  C_33 
REMARK    3  A    between atoms: C_5  and  N_9 
REMARK    4  A    between atoms: C_6  and  C_8 
REMARK    5  A    between atoms: C_14  and  C_32 
REMARK    6  A    between atoms: C_15  and  C_25 
REMARK    7  A    between atoms: C_20  and  C_24 
REMARK    8  A    between atoms: C_25  and  C_26 
ROOT
ATOM      1  N   LIG d   1      11.007   4.955  -3.512  0.00  0.00    -0.293 NA
ATOM      2  C   LIG d   1       9.925   4.109  -2.991  0.00  0.00     0.044 C 
ATOM      3  C   LIG d   1       9.338   3.290  -4.114  0.00  0.00     0.013 A 
ATOM      4  C   LIG d   1       8.582   2.193  -3.812  0.00  0.00    -0.043 A 
ATOM      5  C   LIG d   1       8.030   1.419  -4.838  0.00  0.00     0.022 A 
ATOM      6  C   LIG d   1       7.212   0.242  -4.535  0.00  0.00    -0.029 A 
ATOM      7  C   LIG d   1       6.703  -0.460  -5.580  0.00  0.00     0.045 A 
ATOM      8  C   LIG d   1       6.968  -0.037  -6.898  0.00  0.00     0.341 A 
ATOM      9  O   LIG d   1       6.502  -0.681  -7.822  0.00  0.00    -0.245 OA
ATOM     10  O   LIG d   1       7.711   1.038  -7.178  0.00  0.00    -0.422 OA
ATOM     11  C   LIG d   1       8.243   1.774  -6.182  0.00  0.00     0.146 A 
ATOM     12  C   LIG d   1       9.013   2.891  -6.471  0.00  0.00     0.035 A 
ATOM     13  C   LIG d   1       9.559   3.645  -5.443  0.00  0.00     0.134 A 
ATOM     14  O   LIG d   1      10.312   4.733  -5.754  0.00  0.00    -0.473 OA
ATOM     15  C   LIG d   1      10.552   5.680  -4.710  0.00  0.00     0.157 C 
ATOM     16  H   LIG d   1       9.149   4.737  -2.556  0.00  0.00     0.051 H 
ATOM     17  H   LIG d   1      10.323   3.441  -2.226  0.00  0.00     0.051 H 
ATOM     18  H   LIG d   1       8.413   1.921  -2.780  0.00  0.00     0.063 H 
ATOM     19  H   LIG d   1       9.630   6.216  -4.485  0.00  0.00     0.091 H 
ATOM     20  H   LIG d   1      11.321   6.385  -5.025  0.00  0.00     0.091 H 
ENDROOT
BRANCH   1  21
ATOM     21  C   LIG d   1      11.464   5.841  -2.534  0.00  0.00     0.038 A 
ATOM     22  C   LIG d   1      10.600   6.782  -1.988  0.00  0.00    -0.029 A 
ATOM     23  C   LIG d   1      11.056   7.656  -1.021  0.00  0.00    -0.054 A 
ATOM     24  C   LIG d   1      12.371   7.596  -0.596  0.00  0.00    -0.050 A 
ATOM     25  H   LIG d   1      10.385   8.388  -0.597  0.00  0.00     0.062 H 
ATOM     26  C   LIG d   1      13.234   6.661  -1.138  0.00  0.00    -0.054 A 
ATOM     27  C   LIG d   1      12.783   5.780  -2.102  0.00  0.00    -0.029 A 
ATOM     28  H   LIG d   1      14.260   6.617  -0.804  0.00  0.00     0.062 H 
BRANCH  22  29
ATOM     29  C   LIG d   1       9.168   6.847  -2.451  0.00  0.00    -0.038 C 
ATOM     30  H   LIG d   1       8.867   5.875  -2.841  0.00  0.00     0.028 H 
ATOM     31  H   LIG d   1       8.527   7.115  -1.610  0.00  0.00     0.028 H 
ATOM     32  H   LIG d   1       9.073   7.598  -3.235  0.00  0.00     0.028 H 
ENDBRANCH  22  29
BRANCH  24  33
ATOM     33  C   LIG d   1      12.864   8.552   0.459  0.00  0.00    -0.040 C 
ATOM     34  H   LIG d   1      12.932   8.032   1.416  0.00  0.00     0.028 H 
ATOM     35  H   LIG d   1      13.849   8.927   0.178  0.00  0.00     0.028 H 
ATOM     36  H   LIG d   1      12.169   9.386   0.548  0.00  0.00     0.028 H 
ENDBRANCH  24  33
BRANCH  27  37
ATOM     37  C   LIG d   1      13.723   4.758  -2.687  0.00  0.00    -0.038 C 
ATOM     38  H   LIG d   1      13.318   3.758  -2.528  0.00  0.00     0.028 H 
ATOM     39  H   LIG d   1      13.837   4.938  -3.756  0.00  0.00     0.028 H 
ATOM     40  H   LIG d   1      14.696   4.837  -2.200  0.00  0.00     0.028 H 
ENDBRANCH  27  37
ENDBRANCH   1  21
BRANCH  12  41
ATOM     41  C   LIG d   1       9.258   3.286  -7.905  0.00  0.00    -0.033 C 
ATOM     42  H   LIG d   1      10.134   2.759  -8.282  0.00  0.00     0.028 H 
ATOM     43  H   LIG d   1       8.388   3.022  -8.507  0.00  0.00     0.028 H 
ATOM     44  H   LIG d   1       9.427   4.361  -7.961  0.00  0.00     0.028 H 
ENDBRANCH  12  41
BRANCH   6  45
ATOM     45  C   LIG d   1       6.950  -0.180  -3.112  0.00  0.00    -0.038 C 
ATOM     46  H   LIG d   1       7.829   0.026  -2.503  0.00  0.00     0.028 H 
ATOM     47  H   LIG d   1       6.098   0.376  -2.719  0.00  0.00     0.028 H 
ATOM     48  H   LIG d   1       6.730  -1.248  -3.084  0.00  0.00     0.028 H 
ENDBRANCH   6  45
BRANCH   7  49
ATOM     49  C   LIG d   1       5.859  -1.684  -5.333  0.00  0.00     0.005 C 
ATOM     50  H   LIG d   1       5.573  -2.126  -6.288  0.00  0.00     0.036 H 
ATOM     51  H   LIG d   1       6.431  -2.409  -4.754  0.00  0.00     0.036 H 
BRANCH  49  52
ATOM     52  C   LIG d   1       4.621  -1.294  -4.568  0.00  0.00    -0.043 A 
ATOM     53  C   LIG d   1       3.801  -0.289  -5.046  0.00  0.00    -0.058 A 
ATOM     54  C   LIG d   1       2.664   0.068  -4.345  0.00  0.00    -0.061 A 
ATOM     55  H   LIG d   1       4.048   0.217  -5.967  0.00  0.00     0.062 H 
ATOM     56  C   LIG d   1       2.348  -0.580  -3.164  0.00  0.00    -0.062 A 
ATOM     57  H   LIG d   1       2.024   0.854  -4.718  0.00  0.00     0.062 H 
ATOM     58  C   LIG d   1       3.168  -1.585  -2.687  0.00  0.00    -0.061 A 
ATOM     59  H   LIG d   1       1.460  -0.300  -2.617  0.00  0.00     0.062 H 
ATOM     60  C   LIG d   1       4.301  -1.946  -3.391  0.00  0.00    -0.058 A 
ATOM     61  H   LIG d   1       2.921  -2.091  -1.766  0.00  0.00     0.062 H 
ATOM     62  H   LIG d   1       4.939  -2.734  -3.021  0.00  0.00     0.062 H 
ENDBRANCH  49  52
ENDBRANCH   7  49
TORSDOF 8
ENDMDL
MODEL 6
REMARK VINA RESULT:      -6.5      7.343     11.799
REMARK  8 active torsions:
REMARK  status: ('A' for Active; 'I' for Inactive)
REMARK    1  A    between atoms: C_1  and  C_2 
REMARK    2  A    between atoms: C_4  and  C_33 
REMARK    3  A    between atoms: C_5  and  N_9 
REMARK    4  A    between atoms: C_6  and  C_8 
REMARK    5  A    between atoms: C_14  and  C_32 
REMARK    6  A    between atoms: C_15  and  C_25 
REMARK    7  A    between atoms: C_20  and  C_24 
REMARK    8  A    between atoms: C_25  and  C_26 
ROOT
ATOM      1  N   LIG d   1      10.497   5.061  -9.210  0.00  0.00    -0.293 NA
ATOM      2  C   LIG d   1      10.062   4.918  -7.815  0.00  0.00     0.044 C 
ATOM      3  C   LIG d   1       9.309   3.621  -7.650  0.00  0.00     0.013 A 
ATOM      4  C   LIG d   1       9.127   3.113  -6.394  0.00  0.00    -0.043 A 
ATOM      5  C   LIG d   1       8.434   1.911  -6.220  0.00  0.00     0.022 A 
ATOM      6  C   LIG d   1       8.223   1.353  -4.882  0.00  0.00    -0.029 A 
ATOM      7  C   LIG d   1       7.536   0.185  -4.785  0.00  0.00     0.045 A 
ATOM      8  C   LIG d   1       7.051  -0.436  -5.954  0.00  0.00     0.341 A 
ATOM      9  O   LIG d   1       6.438  -1.483  -5.845  0.00  0.00    -0.245 OA
ATOM     10  O   LIG d   1       7.238   0.073  -7.175  0.00  0.00    -0.422 OA
ATOM     11  C   LIG d   1       7.912   1.229  -7.334  0.00  0.00     0.146 A 
ATOM     12  C   LIG d   1       8.107   1.758  -8.600  0.00  0.00     0.035 A 
ATOM     13  C   LIG d   1       8.802   2.948  -8.759  0.00  0.00     0.134 A 
ATOM     14  O   LIG d   1       8.981   3.444 -10.012  0.00  0.00    -0.473 OA
ATOM     15  C   LIG d   1       9.367   4.816 -10.122  0.00  0.00     0.157 C 
ATOM     16  H   LIG d   1       9.413   5.751  -7.549  0.00  0.00     0.051 H 
ATOM     17  H   LIG d   1      10.935   4.915  -7.161  0.00  0.00     0.051 H 
ATOM     18  H   LIG d   1       9.522   3.638  -5.537  0.00  0.00     0.063 H 
ATOM     19  H   LIG d   1       8.528   5.454  -9.844  0.00  0.00     0.091 H 
ATOM     20  H   LIG d   1       9.670   5.030 -11.146  0.00  0.00     0.091 H 
ENDROOT
BRANCH   1  21
ATOM     21  C   LIG d   1      11.057   6.321  -9.434  0.00  0.00     0.038 A 
ATOM     22  C   LIG d   1      10.310   7.467  -9.192  0.00  0.00    -0.029 A 
ATOM     23  C   LIG d   1      10.866   8.711  -9.413  0.00  0.00    -0.054 A 
ATOM     24  C   LIG d   1      12.165   8.817  -9.876  0.00  0.00    -0.050 A 
ATOM     25  H   LIG d   1      10.286   9.602  -9.225  0.00  0.00     0.062 H 
ATOM     26  C   LIG d   1      12.912   7.679 -10.119  0.00  0.00    -0.054 A 
ATOM     27  C   LIG d   1      12.362   6.431  -9.895  0.00  0.00    -0.029 A 
ATOM     28  H   LIG d   1      13.925   7.765 -10.480  0.00  0.00     0.062 H 
BRANCH  22  29
ATOM     29  C   LIG d   1       8.895   7.351  -8.687  0.00  0.00    -0.038 C 
ATOM     30  H   LIG d   1       8.873   7.551  -7.615  0.00  0.00     0.028 H 
ATOM     31  H   LIG d   1       8.265   8.076  -9.203  0.00  0.00     0.028 H 
ATOM     32  H   LIG d   1       8.522   6.345  -8.876  0.00  0.00     0.028 H 
ENDBRANCH  22  29
BRANCH  24  33
ATOM     33  C   LIG d   1      12.768  10.177 -10.117  0.00  0.00    -0.040 C 
ATOM     34  H   LIG d   1      12.187  10.931  -9.585  0.00  0.00     0.028 H 
ATOM     35  H   LIG d   1      13.797  10.188  -9.753  0.00  0.00     0.028 H 
ATOM     36  H   LIG d   1      12.758  10.396 -11.184  0.00  0.00     0.028 H 
ENDBRANCH  24  33
BRANCH  27  37
ATOM     37  C   LIG d   1      13.179   5.191 -10.153  0.00  0.00    -0.038 C 
ATOM     38  H   LIG d   1      13.922   5.073  -9.365  0.00  0.00     0.028 H 
ATOM     39  H   LIG d   1      12.523   4.320 -10.168  0.00  0.00     0.028 H 
ATOM     40  H   LIG d   1      13.683   5.281 -11.117  0.00  0.00     0.028 H 
ENDBRANCH  27  37
ENDBRANCH   1  21
BRANCH  12  41
ATOM     41  C   LIG d   1       7.561   1.040  -9.808  0.00  0.00    -0.033 C 
ATOM     42  H   LIG d   1       6.771   0.358  -9.498  0.00  0.00     0.028 H 
ATOM     43  H   LIG d   1       7.158   1.768 -10.512  0.00  0.00     0.028 H 
ATOM     44  H   LIG d   1       8.362   0.476 -10.287  0.00  0.00     0.028 H 
ENDBRANCH  12  41
BRANCH   6  45
ATOM     45  C   LIG d   1       8.757   2.046  -3.654  0.00  0.00    -0.038 C 
ATOM     46  H   LIG d   1       7.986   2.069  -2.885  0.00  0.00     0.028 H 
ATOM     47  H   LIG d   1       9.626   1.504  -3.281  0.00  0.00     0.028 H 
ATOM     48  H   LIG d   1       9.047   3.065  -3.909  0.00  0.00     0.028 H 
ENDBRANCH   6  45
BRANCH   7  49
ATOM     49  C   LIG d   1       7.292  -0.443  -3.437  0.00  0.00     0.005 C 
ATOM     50  H   LIG d   1       7.508  -1.510  -3.490  0.00  0.00     0.036 H 
ATOM     51  H   LIG d   1       7.943   0.023  -2.696  0.00  0.00     0.036 H 
BRANCH  49  52
ATOM     52  C   LIG d   1       5.853  -0.240  -3.041  0.00  0.00    -0.043 A 
ATOM     53  C   LIG d   1       5.043  -1.333  -2.794  0.00  0.00    -0.058 A 
ATOM     54  C   LIG d   1       3.723  -1.146  -2.429  0.00  0.00    -0.061 A 
ATOM     55  H   LIG d   1       5.442  -2.332  -2.885  0.00  0.00     0.062 H 
ATOM     56  C   LIG d   1       3.212   0.134  -2.312  0.00  0.00    -0.062 A 
ATOM     57  H   LIG d   1       3.090  -2.000  -2.236  0.00  0.00     0.062 H 
ATOM     58  C   LIG d   1       4.022   1.226  -2.559  0.00  0.00    -0.061 A 
ATOM     59  H   LIG d   1       2.180   0.279  -2.027  0.00  0.00     0.062 H 
ATOM     60  C   LIG d   1       5.344   1.040  -2.918  0.00  0.00    -0.058 A 
ATOM     61  H   LIG d   1       3.623   2.225  -2.467  0.00  0.00     0.062 H 
ATOM     62  H   LIG d   1       5.978   1.893  -3.106  0.00  0.00     0.062 H 
ENDBRANCH  49  52
ENDBRANCH   7  49
TORSDOF 8
ENDMDL
MODEL 7
REMARK VINA RESULT:      -6.3      6.408     11.315
REMARK  8 active torsions:
REMARK  status: ('A' for Active; 'I' for Inactive)
REMARK    1  A    between atoms: C_1  and  C_2 
REMARK    2  A    between atoms: C_4  and  C_33 
REMARK    3  A    between atoms: C_5  and  N_9 
REMARK    4  A    between atoms: C_6  and  C_8 
REMARK    5  A    between atoms: C_14  and  C_32 
REMARK    6  A    between atoms: C_15  and  C_25 
REMARK    7  A    between atoms: C_20  and  C_24 
REMARK    8  A    between atoms: C_25  and  C_26 
ROOT
ATOM      1  N   LIG d   1       9.739   4.950  -8.541  0.00  0.00    -0.293 NA
ATOM      2  C   LIG d   1       8.793   3.897  -8.935  0.00  0.00     0.044 C 
ATOM      3  C   LIG d   1       8.773   2.816  -7.884  0.00  0.00     0.013 A 
ATOM      4  C   LIG d   1       7.728   1.935  -7.856  0.00  0.00    -0.043 A 
ATOM      5  C   LIG d   1       7.689   0.926  -6.888  0.00  0.00     0.022 A 
ATOM      6  C   LIG d   1       6.581  -0.031  -6.845  0.00  0.00    -0.029 A 
ATOM      7  C   LIG d   1       6.610  -0.989  -5.882  0.00  0.00     0.045 A 
ATOM      8  C   LIG d   1       7.689  -1.033  -4.977  0.00  0.00     0.341 A 
ATOM      9  O   LIG d   1       7.696  -1.899  -4.120  0.00  0.00    -0.245 OA
ATOM     10  O   LIG d   1       8.704  -0.164  -5.016  0.00  0.00    -0.422 OA
ATOM     11  C   LIG d   1       8.729   0.808  -5.949  0.00  0.00     0.146 A 
ATOM     12  C   LIG d   1       9.781   1.711  -5.991  0.00  0.00     0.035 A 
ATOM     13  C   LIG d   1       9.804   2.710  -6.953  0.00  0.00     0.134 A 
ATOM     14  O   LIG d   1      10.845   3.584  -6.970  0.00  0.00    -0.473 OA
ATOM     15  C   LIG d   1      11.031   4.354  -8.160  0.00  0.00     0.157 C 
ATOM     16  H   LIG d   1       9.100   3.470  -9.889  0.00  0.00     0.051 H 
ATOM     17  H   LIG d   1       7.795   4.325  -9.033  0.00  0.00     0.051 H 
ATOM     18  H   LIG d   1       6.931   2.021  -8.580  0.00  0.00     0.063 H 
ATOM     19  H   LIG d   1      11.386   3.707  -8.962  0.00  0.00     0.091 H 
ATOM     20  H   LIG d   1      11.758   5.144  -7.975  0.00  0.00     0.091 H 
ENDROOT
BRANCH   1  21
ATOM     21  C   LIG d   1       9.902   5.885  -9.565  0.00  0.00     0.038 A 
ATOM     22  C   LIG d   1      10.210   5.462 -10.852  0.00  0.00    -0.029 A 
ATOM     23  C   LIG d   1      10.370   6.390 -11.862  0.00  0.00    -0.054 A 
ATOM     24  C   LIG d   1      10.224   7.740 -11.593  0.00  0.00    -0.050 A 
ATOM     25  H   LIG d   1      10.610   6.062 -12.862  0.00  0.00     0.062 H 
ATOM     26  C   LIG d   1       9.918   8.164 -10.313  0.00  0.00    -0.054 A 
ATOM     27  C   LIG d   1       9.752   7.241  -9.300  0.00  0.00    -0.029 A 
ATOM     28  H   LIG d   1       9.805   9.218 -10.107  0.00  0.00     0.062 H 
BRANCH  22  29
ATOM     29  C   LIG d   1      10.368   3.993 -11.145  0.00  0.00    -0.038 C 
ATOM     30  H   LIG d   1      11.361   3.809 -11.555  0.00  0.00     0.028 H 
ATOM     31  H   LIG d   1      10.246   3.424 -10.223  0.00  0.00     0.028 H 
ATOM     32  H   LIG d   1       9.614   3.683 -11.867  0.00  0.00     0.028 H 
ENDBRANCH  22  29
BRANCH  24  33
ATOM     33  C   LIG d   1      10.400   8.749 -12.698  0.00  0.00    -0.040 C 
ATOM     34  H   LIG d   1      10.746   9.693 -12.276  0.00  0.00     0.028 H 
ATOM     35  H   LIG d   1      11.135   8.379 -13.415  0.00  0.00     0.028 H 
ATOM     36  H   LIG d   1       9.447   8.905 -13.204  0.00  0.00     0.028 H 
ENDBRANCH  24  33
BRANCH  27  37
ATOM     37  C   LIG d   1       9.413   7.704  -7.906  0.00  0.00    -0.038 C 
ATOM     38  H   LIG d   1       9.480   8.791  -7.858  0.00  0.00     0.028 H 
ATOM     39  H   LIG d   1       8.399   7.391  -7.656  0.00  0.00     0.028 H 
ATOM     40  H   LIG d   1      10.114   7.264  -7.196  0.00  0.00     0.028 H 
ENDBRANCH  27  37
ENDBRANCH   1  21
BRANCH  12  41
ATOM     41  C   LIG d   1      10.904   1.606  -4.990  0.00  0.00    -0.033 C 
ATOM     42  H   LIG d   1      10.490   1.412  -4.001  0.00  0.00     0.028 H 
ATOM     43  H   LIG d   1      11.567   0.789  -5.273  0.00  0.00     0.028 H 
ATOM     44  H   LIG d   1      11.464   2.541  -4.974  0.00  0.00     0.028 H 
ENDBRANCH  12  41
BRANCH   6  45
ATOM     45  C   LIG d   1       5.443   0.048  -7.831  0.00  0.00    -0.038 C 
ATOM     46  H   LIG d   1       4.847   0.937  -7.629  0.00  0.00     0.028 H 
ATOM     47  H   LIG d   1       5.843   0.101  -8.844  0.00  0.00     0.028 H 
ATOM     48  H   LIG d   1       4.817  -0.840  -7.735  0.00  0.00     0.028 H 
ENDBRANCH   6  45
BRANCH   7  49
ATOM     49  C   LIG d   1       5.496  -1.998  -5.782  0.00  0.00     0.005 C 
ATOM     50  H   LIG d   1       4.963  -2.046  -6.732  0.00  0.00     0.036 H 
ATOM     51  H   LIG d   1       5.913  -2.978  -5.550  0.00  0.00     0.036 H 
BRANCH  49  52
ATOM     52  C   LIG d   1       4.542  -1.588  -4.690  0.00  0.00    -0.043 A 
ATOM     53  C   LIG d   1       3.753  -0.463  -4.849  0.00  0.00    -0.058 A 
ATOM     54  C   LIG d   1       2.878  -0.087  -3.848  0.00  0.00    -0.061 A 
ATOM     55  H   LIG d   1       3.821   0.121  -5.754  0.00  0.00     0.062 H 
ATOM     56  C   LIG d   1       2.792  -0.834  -2.687  0.00  0.00    -0.062 A 
ATOM     57  H   LIG d   1       2.262   0.792  -3.971  0.00  0.00     0.062 H 
ATOM     58  C   LIG d   1       3.580  -1.958  -2.529  0.00  0.00    -0.061 A 
ATOM     59  H   LIG d   1       2.108  -0.539  -1.905  0.00  0.00     0.062 H 
ATOM     60  C   LIG d   1       4.451  -2.338  -3.533  0.00  0.00    -0.058 A 
ATOM     61  H   LIG d   1       3.512  -2.542  -1.623  0.00  0.00     0.062 H 
ATOM     62  H   LIG d   1       5.064  -3.218  -3.411  0.00  0.00     0.062 H 
ENDBRANCH  49  52
ENDBRANCH   7  49
TORSDOF 8
ENDMDL
MODEL 8
REMARK VINA RESULT:      -6.3      6.408     11.224
REMARK  8 active torsions:
REMARK  status: ('A' for Active; 'I' for Inactive)
REMARK    1  A    between atoms: C_1  and  C_2 
REMARK    2  A    between atoms: C_4  and  C_33 
REMARK    3  A    between atoms: C_5  and  N_9 
REMARK    4  A    between atoms: C_6  and  C_8 
REMARK    5  A    between atoms: C_14  and  C_32 
REMARK    6  A    between atoms: C_15  and  C_25 
REMARK    7  A    between atoms: C_20  and  C_24 
REMARK    8  A    between atoms: C_25  and  C_26 
ROOT
ATOM      1  N   LIG d   1       9.729   4.937  -8.598  0.00  0.00    -0.293 NA
ATOM      2  C   LIG d   1       8.793   3.874  -8.986  0.00  0.00     0.044 C 
ATOM      3  C   LIG d   1       8.769   2.807  -7.920  0.00  0.00     0.013 A 
ATOM      4  C   LIG d   1       7.729   1.921  -7.890  0.00  0.00    -0.043 A 
ATOM      5  C   LIG d   1       7.687   0.926  -6.908  0.00  0.00     0.022 A 
ATOM      6  C   LIG d   1       6.584  -0.038  -6.862  0.00  0.00    -0.029 A 
ATOM      7  C   LIG d   1       6.609  -0.981  -5.885  0.00  0.00     0.045 A 
ATOM      8  C   LIG d   1       7.679  -1.006  -4.969  0.00  0.00     0.341 A 
ATOM      9  O   LIG d   1       7.683  -1.861  -4.100  0.00  0.00    -0.245 OA
ATOM     10  O   LIG d   1       8.689  -0.132  -5.010  0.00  0.00    -0.422 OA
ATOM     11  C   LIG d   1       8.718   0.827  -5.957  0.00  0.00     0.146 A 
ATOM     12  C   LIG d   1       9.766   1.735  -6.002  0.00  0.00     0.035 A 
ATOM     13  C   LIG d   1       9.791   2.721  -6.978  0.00  0.00     0.134 A 
ATOM     14  O   LIG d   1      10.828   3.600  -6.997  0.00  0.00    -0.473 OA
ATOM     15  C   LIG d   1      11.021   4.355  -8.196  0.00  0.00     0.157 C 
ATOM     16  H   LIG d   1       9.112   3.435  -9.931  0.00  0.00     0.051 H 
ATOM     17  H   LIG d   1       7.793   4.295  -9.100  0.00  0.00     0.051 H 
ATOM     18  H   LIG d   1       6.939   1.991  -8.622  0.00  0.00     0.063 H 
ATOM     19  H   LIG d   1      11.387   3.698  -8.986  0.00  0.00     0.091 H 
ATOM     20  H   LIG d   1      11.741   5.152  -8.015  0.00  0.00     0.091 H 
ENDROOT
BRANCH   1  21
ATOM     21  C   LIG d   1       9.897   5.859  -9.634  0.00  0.00     0.038 A 
ATOM     22  C   LIG d   1       9.751   7.218  -9.386  0.00  0.00    -0.029 A 
ATOM     23  C   LIG d   1       9.918   8.127 -10.412  0.00  0.00    -0.054 A 
ATOM     24  C   LIG d   1      10.229   7.686 -11.686  0.00  0.00    -0.050 A 
ATOM     25  H   LIG d   1       9.804   9.184 -10.220  0.00  0.00     0.062 H 
ATOM     26  C   LIG d   1      10.375   6.333 -11.936  0.00  0.00    -0.054 A 
ATOM     27  C   LIG d   1      10.214   5.420 -10.912  0.00  0.00    -0.029 A 
ATOM     28  H   LIG d   1      10.618   5.992 -12.931  0.00  0.00     0.062 H 
BRANCH  22  29
ATOM     29  C   LIG d   1       9.412   7.700  -7.999  0.00  0.00    -0.038 C 
ATOM     30  H   LIG d   1       8.414   8.138  -8.000  0.00  0.00     0.028 H 
ATOM     31  H   LIG d   1       9.437   6.858  -7.307  0.00  0.00     0.028 H 
ATOM     32  H   LIG d   1      10.137   8.450  -7.687  0.00  0.00     0.028 H 
ENDBRANCH  22  29
BRANCH  24  33
ATOM     33  C   LIG d   1      10.411   8.681 -12.802  0.00  0.00    -0.040 C 
ATOM     34  H   LIG d   1      11.215   9.371 -12.547  0.00  0.00     0.028 H 
ATOM     35  H   LIG d   1      10.663   8.152 -13.723  0.00  0.00     0.028 H 
ATOM     36  H   LIG d   1       9.486   9.239 -12.946  0.00  0.00     0.028 H 
ENDBRANCH  24  33
BRANCH  27  37
ATOM     37  C   LIG d   1      10.379   3.946 -11.185  0.00  0.00    -0.038 C 
ATOM     38  H   LIG d   1      10.454   3.408 -10.240  0.00  0.00     0.028 H 
ATOM     39  H   LIG d   1       9.518   3.582 -11.744  0.00  0.00     0.028 H 
ATOM     40  H   LIG d   1      11.286   3.784 -11.768  0.00  0.00     0.028 H 
ENDBRANCH  27  37
ENDBRANCH   1  21
BRANCH  12  41
ATOM     41  C   LIG d   1      10.879   1.651  -4.989  0.00  0.00    -0.033 C 
ATOM     42  H   LIG d   1      10.947   0.632  -4.609  0.00  0.00     0.028 H 
ATOM     43  H   LIG d   1      11.821   1.927  -5.462  0.00  0.00     0.028 H 
ATOM     44  H   LIG d   1      10.671   2.334  -4.165  0.00  0.00     0.028 H 
ENDBRANCH  12  41
BRANCH   6  45
ATOM     45  C   LIG d   1       5.455   0.020  -7.860  0.00  0.00    -0.038 C 
ATOM     46  H   LIG d   1       5.703  -0.591  -8.726  0.00  0.00     0.028 H 
ATOM     47  H   LIG d   1       4.543  -0.358  -7.398  0.00  0.00     0.028 H 
ATOM     48  H   LIG d   1       5.301   1.053  -8.174  0.00  0.00     0.028 H 
ENDBRANCH   6  45
BRANCH   7  49
ATOM     49  C   LIG d   1       5.500  -1.996  -5.781  0.00  0.00     0.005 C 
ATOM     50  H   LIG d   1       4.967  -2.049  -6.731  0.00  0.00     0.036 H 
ATOM     51  H   LIG d   1       5.922  -2.973  -5.547  0.00  0.00     0.036 H 
BRANCH  49  52
ATOM     52  C   LIG d   1       4.545  -1.587  -4.690  0.00  0.00    -0.043 A 
ATOM     53  C   LIG d   1       4.459  -2.335  -3.530  0.00  0.00    -0.058 A 
ATOM     54  C   LIG d   1       3.584  -1.959  -2.529  0.00  0.00    -0.061 A 
ATOM     55  H   LIG d   1       5.076  -3.213  -3.407  0.00  0.00     0.062 H 
ATOM     56  C   LIG d   1       2.793  -0.835  -2.687  0.00  0.00    -0.062 A 
ATOM     57  H   LIG d   1       3.517  -2.543  -1.623  0.00  0.00     0.062 H 
ATOM     58  C   LIG d   1       2.879  -0.087  -3.846  0.00  0.00    -0.061 A 
ATOM     59  H   LIG d   1       2.109  -0.542  -1.904  0.00  0.00     0.062 H 
ATOM     60  C   LIG d   1       3.759  -0.460  -4.845  0.00  0.00    -0.058 A 
ATOM     61  H   LIG d   1       2.263   0.790  -3.969  0.00  0.00     0.062 H 
ATOM     62  H   LIG d   1       3.829   0.126  -5.749  0.00  0.00     0.062 H 
ENDBRANCH  49  52
ENDBRANCH   7  49
TORSDOF 8
ENDMDL
MODEL 9
REMARK VINA RESULT:      -6.3      4.578      5.932
REMARK  8 active torsions:
REMARK  status: ('A' for Active; 'I' for Inactive)
REMARK    1  A    between atoms: C_1  and  C_2 
REMARK    2  A    between atoms: C_4  and  C_33 
REMARK    3  A    between atoms: C_5  and  N_9 
REMARK    4  A    between atoms: C_6  and  C_8 
REMARK    5  A    between atoms: C_14  and  C_32 
REMARK    6  A    between atoms: C_15  and  C_25 
REMARK    7  A    between atoms: C_20  and  C_24 
REMARK    8  A    between atoms: C_25  and  C_26 
ROOT
ATOM      1  N   LIG d   1       5.856  -8.953  -5.317  0.00  0.00    -0.293 NA
ATOM      2  C   LIG d   1       6.643  -7.743  -5.043  0.00  0.00     0.044 C 
ATOM      3  C   LIG d   1       5.980  -6.552  -5.687  0.00  0.00     0.013 A 
ATOM      4  C   LIG d   1       6.324  -5.295  -5.275  0.00  0.00    -0.043 A 
ATOM      5  C   LIG d   1       5.720  -4.177  -5.858  0.00  0.00     0.022 A 
ATOM      6  C   LIG d   1       6.080  -2.822  -5.433  0.00  0.00    -0.029 A 
ATOM      7  C   LIG d   1       5.457  -1.781  -6.046  0.00  0.00     0.045 A 
ATOM      8  C   LIG d   1       4.508  -2.035  -7.057  0.00  0.00     0.341 A 
ATOM      9  O   LIG d   1       3.961  -1.088  -7.594  0.00  0.00    -0.245 OA
ATOM     10  O   LIG d   1       4.181  -3.270  -7.449  0.00  0.00    -0.422 OA
ATOM     11  C   LIG d   1       4.765  -4.342  -6.877  0.00  0.00     0.146 A 
ATOM     12  C   LIG d   1       4.427  -5.624  -7.284  0.00  0.00     0.035 A 
ATOM     13  C   LIG d   1       5.030  -6.724  -6.692  0.00  0.00     0.134 A 
ATOM     14  O   LIG d   1       4.678  -7.970  -7.107  0.00  0.00    -0.473 OA
ATOM     15  C   LIG d   1       5.552  -9.045  -6.755  0.00  0.00     0.157 C 
ATOM     16  H   LIG d   1       7.647  -7.863  -5.448  0.00  0.00     0.051 H 
ATOM     17  H   LIG d   1       6.702  -7.586  -3.965  0.00  0.00     0.051 H 
ATOM     18  H   LIG d   1       7.061  -5.166  -4.496  0.00  0.00     0.063 H 
ATOM     19  H   LIG d   1       6.475  -8.969  -7.330  0.00  0.00     0.091 H 
ATOM     20  H   LIG d   1       5.064  -9.996  -6.966  0.00  0.00     0.091 H 
ENDROOT
BRANCH   1  21
ATOM     21  C   LIG d   1       6.524 -10.097  -4.873  0.00  0.00     0.038 A 
ATOM     22  C   LIG d   1       6.036 -10.808  -3.785  0.00  0.00    -0.029 A 
ATOM     23  C   LIG d   1       6.699 -11.939  -3.348  0.00  0.00    -0.054 A 
ATOM     24  C   LIG d   1       7.847 -12.362  -3.993  0.00  0.00    -0.050 A 
ATOM     25  H   LIG d   1       6.321 -12.492  -2.502  0.00  0.00     0.062 H 
ATOM     26  C   LIG d   1       8.336 -11.655  -5.077  0.00  0.00    -0.054 A 
ATOM     27  C   LIG d   1       7.674 -10.527  -5.522  0.00  0.00    -0.029 A 
ATOM     28  H   LIG d   1       9.232 -11.988  -5.579  0.00  0.00     0.062 H 
BRANCH  22  29
ATOM     29  C   LIG d   1       4.786 -10.348  -3.082  0.00  0.00    -0.038 C 
ATOM     30  H   LIG d   1       5.016 -10.124  -2.040  0.00  0.00     0.028 H 
ATOM     31  H   LIG d   1       4.404  -9.451  -3.570  0.00  0.00     0.028 H 
ATOM     32  H   LIG d   1       4.033 -11.134  -3.126  0.00  0.00     0.028 H 
ENDBRANCH  22  29
BRANCH  24  33
ATOM     33  C   LIG d   1       8.567 -13.595  -3.514  0.00  0.00    -0.040 C 
ATOM     34  H   LIG d   1       8.590 -13.602  -2.424  0.00  0.00     0.028 H 
ATOM     35  H   LIG d   1       8.045 -14.483  -3.872  0.00  0.00     0.028 H 
ATOM     36  H   LIG d   1       9.587 -13.594  -3.898  0.00  0.00     0.028 H 
ENDBRANCH  24  33
BRANCH  27  37
ATOM     37  C   LIG d   1       8.204  -9.761  -6.707  0.00  0.00    -0.038 C 
ATOM     38  H   LIG d   1       8.792 -10.427  -7.338  0.00  0.00     0.028 H 
ATOM     39  H   LIG d   1       7.370  -9.358  -7.281  0.00  0.00     0.028 H 
ATOM     40  H   LIG d   1       8.834  -8.941  -6.359  0.00  0.00     0.028 H 
ENDBRANCH  27  37
ENDBRANCH   1  21
BRANCH  12  41
ATOM     41  C   LIG d   1       3.401  -5.823  -8.371  0.00  0.00    -0.033 C 
ATOM     42  H   LIG d   1       2.565  -6.399  -7.978  0.00  0.00     0.028 H 
ATOM     43  H   LIG d   1       3.045  -4.852  -8.715  0.00  0.00     0.028 H 
ATOM     44  H   LIG d   1       3.855  -6.360  -9.203  0.00  0.00     0.028 H 
ENDBRANCH  12  41
BRANCH   6  45
ATOM     45  C   LIG d   1       7.100  -2.589  -4.348  0.00  0.00    -0.038 C 
ATOM     46  H   LIG d   1       7.855  -1.889  -4.703  0.00  0.00     0.028 H 
ATOM     47  H   LIG d   1       6.606  -2.176  -3.469  0.00  0.00     0.028 H 
ATOM     48  H   LIG d   1       7.574  -3.535  -4.086  0.00  0.00     0.028 H 
ENDBRANCH   6  45
BRANCH   7  49
ATOM     49  C   LIG d   1       5.779  -0.364  -5.649  0.00  0.00     0.005 C 
ATOM     50  H   LIG d   1       6.855  -0.264  -5.501  0.00  0.00     0.036 H 
ATOM     51  H   LIG d   1       5.456   0.317  -6.438  0.00  0.00     0.036 H 
BRANCH  49  52
ATOM     52  C   LIG d   1       5.062  -0.025  -4.369  0.00  0.00    -0.043 A 
ATOM     53  C   LIG d   1       5.735   0.624  -3.350  0.00  0.00    -0.058 A 
ATOM     54  C   LIG d   1       5.076   0.936  -2.176  0.00  0.00    -0.061 A 
ATOM     55  H   LIG d   1       6.774   0.888  -3.472  0.00  0.00     0.062 H 
ATOM     56  C   LIG d   1       3.744   0.597  -2.018  0.00  0.00    -0.062 A 
ATOM     57  H   LIG d   1       5.601   1.443  -1.380  0.00  0.00     0.062 H 
ATOM     58  C   LIG d   1       3.071  -0.052  -3.037  0.00  0.00    -0.061 A 
ATOM     59  H   LIG d   1       3.230   0.840  -1.100  0.00  0.00     0.062 H 
ATOM     60  C   LIG d   1       3.729  -0.358  -4.214  0.00  0.00    -0.058 A 
ATOM     61  H   LIG d   1       2.032  -0.316  -2.915  0.00  0.00     0.062 H 
ATOM     62  H   LIG d   1       3.202  -0.861  -5.011  0.00  0.00     0.062 H 
ENDBRANCH  49  52
ENDBRANCH   7  49
TORSDOF 8
ENDMDL
