MODEL 1
REMARK VINA RESULT:      -6.3      0.000      0.000
REMARK  10 active torsions:
REMARK  status: ('A' for Active; 'I' for Inactive)
REMARK    1  A    between atoms: C_1  and  O_2 
REMARK    2  A    between atoms: O_2  and  C_3 
REMARK    3  A    between atoms: C_3  and  C_4 
REMARK       I    between atoms: N_9  and  C_10 
REMARK    4  A    between atoms: C_10  and  C_12 
REMARK    5  A    between atoms: C_12  and  C_13 
REMARK    6  A    between atoms: C_15  and  O_32 
REMARK    7  A    between atoms: C_17  and  O_31 
REMARK    8  A    between atoms: C_19  and  C_22 
REMARK    9  A    between atoms: C_22  and  N_23 
REMARK       I    between atoms: N_23  and  C_24 
REMARK   10  A    between atoms: C_24  and  C_26 
ROOT
ATOM      1  C   LIG d   1       8.026   1.589  -4.241  0.00  0.00     0.096 C 
ATOM      2  H   LIG d   1       7.846   2.574  -3.810  0.00  0.00     0.063 H 
ATOM      3  C   LIG d   1       9.547   1.315  -4.358  0.00  0.00     0.110 C 
ATOM      4  H   LIG d   1       9.744   0.247  -4.450  0.00  0.00     0.065 H 
ATOM      5  C   LIG d   1       9.909   2.058  -5.667  0.00  0.00     0.111 C 
ATOM      6  H   LIG d   1      10.614   1.472  -6.257  0.00  0.00     0.065 H 
ATOM      7  C   LIG d   1       8.566   2.193  -6.410  0.00  0.00     0.103 C 
ATOM      8  H   LIG d   1       8.313   3.246  -6.529  0.00  0.00     0.064 H 
ATOM      9  O   LIG d   1       7.567   1.540  -5.609  0.00  0.00    -0.366 OA
ENDROOT
BRANCH   1  10
ATOM     10  C   LIG d   1       7.346   0.502  -3.405  0.00  0.00     0.053 C 
ATOM     11  H   LIG d   1       7.387  -0.447  -3.940  0.00  0.00     0.038 H 
ATOM     12  H   LIG d   1       7.860   0.404  -2.450  0.00  0.00     0.038 H 
BRANCH  10  13
ATOM     13  C   LIG d   1       5.906   0.880  -3.164  0.00  0.00     0.218 C 
ATOM     14  N   LIG d   1       4.959  -0.077  -3.104  0.00  0.00    -0.296 N 
ATOM     15  C   LIG d   1       3.525   0.150  -2.877  0.00  0.00     0.049 C 
ATOM     16  C   LIG d   1       5.189  -1.524  -3.264  0.00  0.00     0.015 C 
ATOM     17  H   LIG d   1       3.376   0.650  -1.919  0.00  0.00     0.052 H 
ATOM     18  C   LIG d   1       2.838  -1.231  -2.864  0.00  0.00    -0.031 C 
ATOM     19  C   LIG d   1       4.005  -2.196  -2.520  0.00  0.00    -0.035 C 
ATOM     20  H   LIG d   1       2.066  -1.271  -2.095  0.00  0.00     0.028 H 
ATOM     21  H   LIG d   1       2.421  -1.464  -3.843  0.00  0.00     0.028 H 
ATOM     22  H   LIG d   1       4.182  -2.228  -1.445  0.00  0.00     0.028 H 
ATOM     23  H   LIG d   1       3.814  -3.194  -2.913  0.00  0.00     0.028 H 
ATOM     24  H   LIG d   1       5.180  -1.796  -4.320  0.00  0.00     0.046 H 
ATOM     25  H   LIG d   1       6.136  -1.811  -2.805  0.00  0.00     0.046 H 
ATOM     26  O   LIG d   1       5.601   2.045  -3.024  0.00  0.00    -0.276 OA
BRANCH  15  27
ATOM     27  C   LIG d   1       2.948   1.008  -4.005  0.00  0.00     0.066 C 
ATOM     28  H   LIG d   1       2.192   1.681  -3.599  0.00  0.00     0.058 H 
ATOM     29  H   LIG d   1       3.746   1.591  -4.464  0.00  0.00     0.058 H 
BRANCH  27  30
ATOM     30  O   LIG d   1       2.352   0.160  -4.990  0.00  0.00    -0.381 OA
BRANCH  30  31
ATOM     31  C   LIG d   1       2.962   0.250  -6.279  0.00  0.00     0.036 C 
ATOM     32  H   LIG d   1       4.046   0.203  -6.173  0.00  0.00     0.052 H 
ATOM     33  H   LIG d   1       2.622  -0.579  -6.901  0.00  0.00     0.052 H 
ATOM     34  H   LIG d   1       2.683   1.193  -6.748  0.00  0.00     0.052 H 
ENDBRANCH  30  31
ENDBRANCH  27  30
ENDBRANCH  15  27
ENDBRANCH  10  13
ENDBRANCH   1  10
BRANCH   3  35
ATOM     35  O   LIG d   1      10.252   1.868  -3.245  0.00  0.00    -0.387 OA
ATOM     36  H   LIG d   1       9.754   2.541  -2.759  0.00  0.00     0.210 HD
ENDBRANCH   3  35
BRANCH   7  37
ATOM     37  C   LIG d   1       8.659   1.518  -7.779  0.00  0.00     0.041 C 
ATOM     38  H   LIG d   1       9.164   2.184  -8.479  0.00  0.00     0.049 H 
ATOM     39  H   LIG d   1       9.223   0.590  -7.690  0.00  0.00     0.049 H 
BRANCH  37  40
ATOM     40  N   LIG d   1       7.310   1.225  -8.271  0.00  0.00    -0.306 N 
ATOM     41  C   LIG d   1       6.660   2.127  -9.033  0.00  0.00     0.279 C 
ATOM     42  O   LIG d   1       7.192   3.185  -9.312  0.00  0.00    -0.267 OA
ATOM     43  H   LIG d   1       6.885   0.382  -8.049  0.00  0.00     0.149 HD
BRANCH  41  44
ATOM     44  C   LIG d   1       5.310   1.833  -9.526  0.00  0.00     0.189 A 
ATOM     45  O   LIG d   1       4.985   0.886 -10.430  0.00  0.00    -0.458 OA
ATOM     46  C   LIG d   1       3.662   0.905 -10.638  0.00  0.00     0.093 A 
ATOM     47  C   LIG d   1       3.115   1.870  -9.867  0.00  0.00    -0.023 A 
ATOM     48  H   LIG d   1       3.122   0.257 -11.312  0.00  0.00     0.103 H 
ATOM     49  C   LIG d   1       4.162   2.466  -9.146  0.00  0.00    -0.011 A 
ATOM     50  H   LIG d   1       2.068   2.130  -9.811  0.00  0.00     0.065 H 
ATOM     51  H   LIG d   1       4.075   3.271  -8.431  0.00  0.00     0.066 H 
ENDBRANCH  41  44
ENDBRANCH  37  40
ENDBRANCH   7  37
BRANCH   5  52
ATOM     52  O   LIG d   1      10.452   3.348  -5.376  0.00  0.00    -0.387 OA
ATOM     53  H   LIG d   1       9.873   3.906  -4.839  0.00  0.00     0.210 HD
ENDBRANCH   5  52
TORSDOF 10
ENDMDL
MODEL 2
REMARK VINA RESULT:      -6.0      2.133      6.554
REMARK  10 active torsions:
REMARK  status: ('A' for Active; 'I' for Inactive)
REMARK    1  A    between atoms: C_1  and  O_2 
REMARK    2  A    between atoms: O_2  and  C_3 
REMARK    3  A    between atoms: C_3  and  C_4 
REMARK       I    between atoms: N_9  and  C_10 
REMARK    4  A    between atoms: C_10  and  C_12 
REMARK    5  A    between atoms: C_12  and  C_13 
REMARK    6  A    between atoms: C_15  and  O_32 
REMARK    7  A    between atoms: C_17  and  O_31 
REMARK    8  A    between atoms: C_19  and  C_22 
REMARK    9  A    between atoms: C_22  and  N_23 
REMARK       I    between atoms: N_23  and  C_24 
REMARK   10  A    between atoms: C_24  and  C_26 
ROOT
ATOM      1  C   LIG d   1       4.044  -0.371  -5.136  0.00  0.00     0.096 C 
ATOM      2  H   LIG d   1       3.342   0.306  -4.648  0.00  0.00     0.063 H 
ATOM      3  C   LIG d   1       4.314  -1.610  -4.244  0.00  0.00     0.110 C 
ATOM      4  H   LIG d   1       4.717  -2.433  -4.835  0.00  0.00     0.065 H 
ATOM      5  C   LIG d   1       5.375  -1.071  -3.254  0.00  0.00     0.111 C 
ATOM      6  H   LIG d   1       6.144  -1.822  -3.072  0.00  0.00     0.065 H 
ATOM      7  C   LIG d   1       5.977   0.153  -3.974  0.00  0.00     0.103 C 
ATOM      8  H   LIG d   1       5.779   1.056  -3.398  0.00  0.00     0.064 H 
ATOM      9  O   LIG d   1       5.343   0.246  -5.260  0.00  0.00    -0.366 OA
ENDROOT
BRANCH   1  10
ATOM     10  C   LIG d   1       3.517  -0.799  -6.507  0.00  0.00     0.053 C 
ATOM     11  H   LIG d   1       4.229  -1.479  -6.974  0.00  0.00     0.038 H 
ATOM     12  H   LIG d   1       2.558  -1.303  -6.387  0.00  0.00     0.038 H 
BRANCH  10  13
ATOM     13  C   LIG d   1       3.338   0.418  -7.379  0.00  0.00     0.218 C 
ATOM     14  N   LIG d   1       3.573   0.337  -8.704  0.00  0.00    -0.296 N 
ATOM     15  C   LIG d   1       3.439   1.440  -9.666  0.00  0.00     0.049 C 
ATOM     16  C   LIG d   1       4.013  -0.870  -9.427  0.00  0.00     0.015 C 
ATOM     17  H   LIG d   1       2.416   1.817  -9.659  0.00  0.00     0.052 H 
ATOM     18  C   LIG d   1       3.785   0.877 -11.060  0.00  0.00    -0.031 C 
ATOM     19  C   LIG d   1       3.545  -0.647 -10.889  0.00  0.00    -0.035 C 
ATOM     20  H   LIG d   1       3.119   1.289 -11.819  0.00  0.00     0.028 H 
ATOM     21  H   LIG d   1       4.826   1.078 -11.310  0.00  0.00     0.028 H 
ATOM     22  H   LIG d   1       2.489  -0.892 -11.006  0.00  0.00     0.028 H 
ATOM     23  H   LIG d   1       4.157  -1.219 -11.585  0.00  0.00     0.028 H 
ATOM     24  H   LIG d   1       5.099  -0.963  -9.384  0.00  0.00     0.046 H 
ATOM     25  H   LIG d   1       3.539  -1.757  -9.008  0.00  0.00     0.046 H 
ATOM     26  O   LIG d   1       2.984   1.469  -6.889  0.00  0.00    -0.276 OA
BRANCH  15  27
ATOM     27  C   LIG d   1       4.409   2.567  -9.305  0.00  0.00     0.066 C 
ATOM     28  H   LIG d   1       4.080   3.494  -9.774  0.00  0.00     0.058 H 
ATOM     29  H   LIG d   1       4.432   2.695  -8.222  0.00  0.00     0.058 H 
BRANCH  27  30
ATOM     30  O   LIG d   1       5.719   2.235  -9.772  0.00  0.00    -0.381 OA
BRANCH  30  31
ATOM     31  C   LIG d   1       6.656   1.964  -8.728  0.00  0.00     0.036 C 
ATOM     32  H   LIG d   1       6.293   1.135  -8.120  0.00  0.00     0.052 H 
ATOM     33  H   LIG d   1       7.620   1.700  -9.164  0.00  0.00     0.052 H 
ATOM     34  H   LIG d   1       6.771   2.849  -8.104  0.00  0.00     0.052 H 
ENDBRANCH  30  31
ENDBRANCH  27  30
ENDBRANCH  15  27
ENDBRANCH  10  13
ENDBRANCH   1  10
BRANCH   3  35
ATOM     35  O   LIG d   1       3.129  -2.010  -3.554  0.00  0.00    -0.387 OA
ATOM     36  H   LIG d   1       2.589  -2.649  -4.040  0.00  0.00     0.210 HD
ENDBRANCH   3  35
BRANCH   7  37
ATOM     37  C   LIG d   1       7.485  -0.037  -4.149  0.00  0.00     0.041 C 
ATOM     38  H   LIG d   1       7.808  -0.917  -3.591  0.00  0.00     0.049 H 
ATOM     39  H   LIG d   1       7.714  -0.172  -5.205  0.00  0.00     0.049 H 
BRANCH  37  40
ATOM     40  N   LIG d   1       8.187   1.146  -3.644  0.00  0.00    -0.306 N 
ATOM     41  C   LIG d   1       8.412   2.195  -4.459  0.00  0.00     0.279 C 
ATOM     42  O   LIG d   1       8.033   2.160  -5.615  0.00  0.00    -0.267 OA
ATOM     43  H   LIG d   1       8.489   1.174  -2.723  0.00  0.00     0.149 HD
BRANCH  41  44
ATOM     44  C   LIG d   1       9.114   3.379  -3.954  0.00  0.00     0.189 A 
ATOM     45  O   LIG d   1       9.617   3.532  -2.711  0.00  0.00    -0.458 OA
ATOM     46  C   LIG d   1      10.189   4.740  -2.608  0.00  0.00     0.093 A 
ATOM     47  C   LIG d   1      10.061   5.383  -3.790  0.00  0.00    -0.023 A 
ATOM     48  H   LIG d   1      10.672   5.133  -1.727  0.00  0.00     0.103 H 
ATOM     49  C   LIG d   1       9.380   4.517  -4.660  0.00  0.00    -0.011 A 
ATOM     50  H   LIG d   1      10.421   6.374  -4.022  0.00  0.00     0.065 H 
ATOM     51  H   LIG d   1       9.114   4.715  -5.688  0.00  0.00     0.066 H 
ENDBRANCH  41  44
ENDBRANCH  37  40
ENDBRANCH   7  37
BRANCH   5  52
ATOM     52  O   LIG d   1       4.759  -0.676  -2.027  0.00  0.00    -0.387 OA
ATOM     53  H   LIG d   1       4.798  -1.348  -1.333  0.00  0.00     0.210 HD
ENDBRANCH   5  52
TORSDOF 10
ENDMDL
MODEL 3
REMARK VINA RESULT:      -6.0      4.202      6.859
REMARK  10 active torsions:
REMARK  status: ('A' for Active; 'I' for Inactive)
REMARK    1  A    between atoms: C_1  and  O_2 
REMARK    2  A    between atoms: O_2  and  C_3 
REMARK    3  A    between atoms: C_3  and  C_4 
REMARK       I    between atoms: N_9  and  C_10 
REMARK    4  A    between atoms: C_10  and  C_12 
REMARK    5  A    between atoms: C_12  and  C_13 
REMARK    6  A    between atoms: C_15  and  O_32 
REMARK    7  A    between atoms: C_17  and  O_31 
REMARK    8  A    between atoms: C_19  and  C_22 
REMARK    9  A    between atoms: C_22  and  N_23 
REMARK       I    between atoms: N_23  and  C_24 
REMARK   10  A    between atoms: C_24  and  C_26 
ROOT
ATOM      1  C   LIG d   1       8.629   1.481  -3.696  0.00  0.00     0.096 C 
ATOM      2  H   LIG d   1       8.739   0.805  -2.848  0.00  0.00     0.063 H 
ATOM      3  C   LIG d   1       9.826   1.335  -4.669  0.00  0.00     0.110 C 
ATOM      4  H   LIG d   1       9.575   1.723  -5.656  0.00  0.00     0.065 H 
ATOM      5  C   LIG d   1      10.905   2.212  -3.989  0.00  0.00     0.111 C 
ATOM      6  H   LIG d   1      11.456   2.786  -4.734  0.00  0.00     0.065 H 
ATOM      7  C   LIG d   1      10.103   3.153  -3.069  0.00  0.00     0.103 C 
ATOM      8  H   LIG d   1      10.376   2.976  -2.029  0.00  0.00     0.064 H 
ATOM      9  O   LIG d   1       8.710   2.856  -3.265  0.00  0.00    -0.366 OA
ENDROOT
BRANCH   1  10
ATOM     10  C   LIG d   1       7.308   1.221  -4.425  0.00  0.00     0.053 C 
ATOM     11  H   LIG d   1       6.983   2.134  -4.923  0.00  0.00     0.038 H 
ATOM     12  H   LIG d   1       7.450   0.434  -5.164  0.00  0.00     0.038 H 
BRANCH  10  13
ATOM     13  C   LIG d   1       6.260   0.793  -3.429  0.00  0.00     0.218 C 
ATOM     14  N   LIG d   1       5.664  -0.409  -3.553  0.00  0.00    -0.296 N 
ATOM     15  C   LIG d   1       4.632  -0.950  -2.657  0.00  0.00     0.049 C 
ATOM     16  C   LIG d   1       5.934  -1.396  -4.614  0.00  0.00     0.015 C 
ATOM     17  H   LIG d   1       5.020  -1.015  -1.640  0.00  0.00     0.052 H 
ATOM     18  C   LIG d   1       4.268  -2.357  -3.174  0.00  0.00    -0.031 C 
ATOM     19  C   LIG d   1       5.520  -2.759  -3.999  0.00  0.00    -0.035 C 
ATOM     20  H   LIG d   1       4.117  -3.046  -2.343  0.00  0.00     0.028 H 
ATOM     21  H   LIG d   1       3.384  -2.318  -3.810  0.00  0.00     0.028 H 
ATOM     22  H   LIG d   1       6.304  -3.154  -3.352  0.00  0.00     0.028 H 
ATOM     23  H   LIG d   1       5.260  -3.475  -4.778  0.00  0.00     0.028 H 
ATOM     24  H   LIG d   1       5.334  -1.178  -5.497  0.00  0.00     0.046 H 
ATOM     25  H   LIG d   1       6.995  -1.402  -4.867  0.00  0.00     0.046 H 
ATOM     26  O   LIG d   1       5.955   1.530  -2.515  0.00  0.00    -0.276 OA
BRANCH  15  27
ATOM     27  C   LIG d   1       3.395  -0.050  -2.684  0.00  0.00     0.066 C 
ATOM     28  H   LIG d   1       2.874  -0.119  -1.729  0.00  0.00     0.058 H 
ATOM     29  H   LIG d   1       3.700   0.983  -2.858  0.00  0.00     0.058 H 
BRANCH  27  30
ATOM     30  O   LIG d   1       2.523  -0.471  -3.736  0.00  0.00    -0.381 OA
BRANCH  30  31
ATOM     31  C   LIG d   1       2.416   0.464  -4.812  0.00  0.00     0.036 C 
ATOM     32  H   LIG d   1       1.414   0.413  -5.239  0.00  0.00     0.052 H 
ATOM     33  H   LIG d   1       2.601   1.471  -4.437  0.00  0.00     0.052 H 
ATOM     34  H   LIG d   1       3.151   0.220  -5.578  0.00  0.00     0.052 H 
ENDBRANCH  30  31
ENDBRANCH  27  30
ENDBRANCH  15  27
ENDBRANCH  10  13
ENDBRANCH   1  10
BRANCH   3  35
ATOM     35  O   LIG d   1      10.253  -0.026  -4.752  0.00  0.00    -0.387 OA
ATOM     36  H   LIG d   1      10.156  -0.520  -3.926  0.00  0.00     0.210 HD
ENDBRANCH   3  35
BRANCH   7  37
ATOM     37  C   LIG d   1      10.382   4.609  -3.444  0.00  0.00     0.041 C 
ATOM     38  H   LIG d   1      11.149   4.645  -4.219  0.00  0.00     0.049 H 
ATOM     39  H   LIG d   1       9.468   5.071  -3.816  0.00  0.00     0.049 H 
BRANCH  37  40
ATOM     40  N   LIG d   1      10.850   5.336  -2.261  0.00  0.00    -0.306 N 
ATOM     41  C   LIG d   1      10.138   6.377  -1.784  0.00  0.00     0.279 C 
ATOM     42  O   LIG d   1       9.108   6.713  -2.337  0.00  0.00    -0.267 OA
ATOM     43  H   LIG d   1      11.671   5.069  -1.820  0.00  0.00     0.149 HD
BRANCH  41  44
ATOM     44  C   LIG d   1      10.606   7.104  -0.600  0.00  0.00     0.189 A 
ATOM     45  O   LIG d   1      10.720   8.444  -0.487  0.00  0.00    -0.458 OA
ATOM     46  C   LIG d   1      11.177   8.749   0.736  0.00  0.00     0.093 A 
ATOM     47  C   LIG d   1      11.365   7.604   1.428  0.00  0.00    -0.023 A 
ATOM     48  H   LIG d   1      11.365   9.746   1.105  0.00  0.00     0.103 H 
ATOM     49  C   LIG d   1      10.995   6.545   0.583  0.00  0.00    -0.011 A 
ATOM     50  H   LIG d   1      11.726   7.520   2.442  0.00  0.00     0.065 H 
ATOM     51  H   LIG d   1      11.018   5.492   0.823  0.00  0.00     0.066 H 
ENDBRANCH  41  44
ENDBRANCH  37  40
ENDBRANCH   7  37
BRANCH   5  52
ATOM     52  O   LIG d   1      11.797   1.402  -3.220  0.00  0.00    -0.387 OA
ATOM     53  H   LIG d   1      12.439   0.911  -3.751  0.00  0.00     0.210 HD
ENDBRANCH   5  52
TORSDOF 10
ENDMDL
MODEL 4
REMARK VINA RESULT:      -6.0      5.028      8.014
REMARK  10 active torsions:
REMARK  status: ('A' for Active; 'I' for Inactive)
REMARK    1  A    between atoms: C_1  and  O_2 
REMARK    2  A    between atoms: O_2  and  C_3 
REMARK    3  A    between atoms: C_3  and  C_4 
REMARK       I    between atoms: N_9  and  C_10 
REMARK    4  A    between atoms: C_10  and  C_12 
REMARK    5  A    between atoms: C_12  and  C_13 
REMARK    6  A    between atoms: C_15  and  O_32 
REMARK    7  A    between atoms: C_17  and  O_31 
REMARK    8  A    between atoms: C_19  and  C_22 
REMARK    9  A    between atoms: C_22  and  N_23 
REMARK       I    between atoms: N_23  and  C_24 
REMARK   10  A    between atoms: C_24  and  C_26 
ROOT
ATOM      1  C   LIG d   1      10.235   4.704  -4.036  0.00  0.00     0.096 C 
ATOM      2  H   LIG d   1      11.290   4.958  -4.142  0.00  0.00     0.063 H 
ATOM      3  C   LIG d   1       9.989   3.938  -2.712  0.00  0.00     0.110 C 
ATOM      4  H   LIG d   1       8.938   3.982  -2.426  0.00  0.00     0.065 H 
ATOM      5  C   LIG d   1      10.398   2.494  -3.092  0.00  0.00     0.111 C 
ATOM      6  H   LIG d   1       9.706   1.773  -2.654  0.00  0.00     0.065 H 
ATOM      7  C   LIG d   1      10.303   2.466  -4.630  0.00  0.00     0.103 C 
ATOM      8  H   LIG d   1      11.286   2.270  -5.058  0.00  0.00     0.064 H 
ATOM      9  O   LIG d   1       9.836   3.758  -5.052  0.00  0.00    -0.366 OA
ENDROOT
BRANCH   1  10
ATOM     10  C   LIG d   1       9.367   5.962  -4.100  0.00  0.00     0.053 C 
ATOM     11  H   LIG d   1       8.883   6.021  -5.074  0.00  0.00     0.038 H 
ATOM     12  H   LIG d   1       8.609   5.920  -3.319  0.00  0.00     0.038 H 
BRANCH  10  13
ATOM     13  C   LIG d   1      10.232   7.180  -3.897  0.00  0.00     0.218 C 
ATOM     14  N   LIG d   1      10.221   7.824  -2.713  0.00  0.00    -0.296 N 
ATOM     15  C   LIG d   1      11.011   9.018  -2.380  0.00  0.00     0.049 C 
ATOM     16  C   LIG d   1       9.409   7.453  -1.540  0.00  0.00     0.015 C 
ATOM     17  H   LIG d   1      12.074   8.802  -2.489  0.00  0.00     0.052 H 
ATOM     18  C   LIG d   1      10.693   9.385  -0.916  0.00  0.00    -0.031 C 
ATOM     19  C   LIG d   1      10.173   8.046  -0.327  0.00  0.00    -0.035 C 
ATOM     20  H   LIG d   1      11.594   9.710  -0.395  0.00  0.00     0.028 H 
ATOM     21  H   LIG d   1       9.921  10.152  -0.868  0.00  0.00     0.028 H 
ATOM     22  H   LIG d   1      11.001   7.401  -0.031  0.00  0.00     0.028 H 
ATOM     23  H   LIG d   1       9.498   8.223   0.509  0.00  0.00     0.028 H 
ATOM     24  H   LIG d   1       8.413   7.890  -1.615  0.00  0.00     0.046 H 
ATOM     25  H   LIG d   1       9.343   6.368  -1.453  0.00  0.00     0.046 H 
ATOM     26  O   LIG d   1      10.938   7.580  -4.798  0.00  0.00    -0.276 OA
BRANCH  15  27
ATOM     27  C   LIG d   1      10.620  10.176  -3.302  0.00  0.00     0.066 C 
ATOM     28  H   LIG d   1      11.415  10.921  -3.307  0.00  0.00     0.058 H 
ATOM     29  H   LIG d   1      10.468   9.799  -4.314  0.00  0.00     0.058 H 
BRANCH  27  30
ATOM     30  O   LIG d   1       9.409  10.772  -2.830  0.00  0.00    -0.381 OA
BRANCH  30  31
ATOM     31  C   LIG d   1       8.728  11.558  -3.810  0.00  0.00     0.036 C 
ATOM     32  H   LIG d   1       9.443  11.909  -4.555  0.00  0.00     0.052 H 
ATOM     33  H   LIG d   1       7.965  10.950  -4.297  0.00  0.00     0.052 H 
ATOM     34  H   LIG d   1       8.257  12.413  -3.326  0.00  0.00     0.052 H 
ENDBRANCH  30  31
ENDBRANCH  27  30
ENDBRANCH  15  27
ENDBRANCH  10  13
ENDBRANCH   1  10
BRANCH   3  35
ATOM     35  O   LIG d   1      10.821   4.445  -1.667  0.00  0.00    -0.387 OA
ATOM     36  H   LIG d   1      11.643   3.949  -1.542  0.00  0.00     0.210 HD
ENDBRANCH   3  35
BRANCH   7  37
ATOM     37  C   LIG d   1       9.314   1.386  -5.071  0.00  0.00     0.041 C 
ATOM     38  H   LIG d   1       8.813   1.703  -5.986  0.00  0.00     0.049 H 
ATOM     39  H   LIG d   1       9.851   0.455  -5.254  0.00  0.00     0.049 H 
BRANCH  37  40
ATOM     40  N   LIG d   1       8.319   1.176  -4.016  0.00  0.00    -0.306 N 
ATOM     41  C   LIG d   1       7.072   0.777  -4.337  0.00  0.00     0.279 C 
ATOM     42  O   LIG d   1       6.773   0.592  -5.502  0.00  0.00    -0.267 OA
ATOM     43  H   LIG d   1       8.557   1.324  -3.088  0.00  0.00     0.149 HD
BRANCH  41  44
ATOM     44  C   LIG d   1       6.075   0.566  -3.282  0.00  0.00     0.189 A 
ATOM     45  O   LIG d   1       5.538   1.523  -2.498  0.00  0.00    -0.458 OA
ATOM     46  C   LIG d   1       4.664   0.964  -1.649  0.00  0.00     0.093 A 
ATOM     47  C   LIG d   1       4.629  -0.367  -1.877  0.00  0.00    -0.023 A 
ATOM     48  H   LIG d   1       4.085   1.490  -0.905  0.00  0.00     0.103 H 
ATOM     49  C   LIG d   1       5.524  -0.631  -2.926  0.00  0.00    -0.011 A 
ATOM     50  H   LIG d   1       4.021  -1.092  -1.355  0.00  0.00     0.065 H 
ATOM     51  H   LIG d   1       5.738  -1.595  -3.364  0.00  0.00     0.066 H 
ENDBRANCH  41  44
ENDBRANCH  37  40
ENDBRANCH   7  37
BRANCH   5  52
ATOM     52  O   LIG d   1      11.736   2.225  -2.668  0.00  0.00    -0.387 OA
ATOM     53  H   LIG d   1      12.022   1.314  -2.824  0.00  0.00     0.210 HD
ENDBRANCH   5  52
TORSDOF 10
ENDMDL
MODEL 5
REMARK VINA RESULT:      -5.9      3.352      5.597
REMARK  10 active torsions:
REMARK  status: ('A' for Active; 'I' for Inactive)
REMARK    1  A    between atoms: C_1  and  O_2 
REMARK    2  A    between atoms: O_2  and  C_3 
REMARK    3  A    between atoms: C_3  and  C_4 
REMARK       I    between atoms: N_9  and  C_10 
REMARK    4  A    between atoms: C_10  and  C_12 
REMARK    5  A    between atoms: C_12  and  C_13 
REMARK    6  A    between atoms: C_15  and  O_32 
REMARK    7  A    between atoms: C_17  and  O_31 
REMARK    8  A    between atoms: C_19  and  C_22 
REMARK    9  A    between atoms: C_22  and  N_23 
REMARK       I    between atoms: N_23  and  C_24 
REMARK   10  A    between atoms: C_24  and  C_26 
ROOT
ATOM      1  C   LIG d   1       4.946  -4.035  -5.526  0.00  0.00     0.096 C 
ATOM      2  H   LIG d   1       5.959  -4.436  -5.508  0.00  0.00     0.063 H 
ATOM      3  C   LIG d   1       3.927  -5.144  -5.891  0.00  0.00     0.110 C 
ATOM      4  H   LIG d   1       2.919  -4.863  -5.582  0.00  0.00     0.065 H 
ATOM      5  C   LIG d   1       4.037  -5.189  -7.435  0.00  0.00     0.111 C 
ATOM      6  H   LIG d   1       3.052  -5.308  -7.886  0.00  0.00     0.065 H 
ATOM      7  C   LIG d   1       4.641  -3.821  -7.811  0.00  0.00     0.103 C 
ATOM      8  H   LIG d   1       5.611  -3.962  -8.286  0.00  0.00     0.064 H 
ATOM      9  O   LIG d   1       4.798  -3.074  -6.593  0.00  0.00    -0.366 OA
ENDROOT
BRANCH   1  10
ATOM     10  C   LIG d   1       4.593  -3.402  -4.178  0.00  0.00     0.053 C 
ATOM     11  H   LIG d   1       3.600  -2.955  -4.236  0.00  0.00     0.038 H 
ATOM     12  H   LIG d   1       4.602  -4.168  -3.404  0.00  0.00     0.038 H 
BRANCH  10  13
ATOM     13  C   LIG d   1       5.604  -2.335  -3.843  0.00  0.00     0.218 C 
ATOM     14  N   LIG d   1       5.191  -1.114  -3.450  0.00  0.00    -0.296 N 
ATOM     15  C   LIG d   1       6.065   0.013  -3.095  0.00  0.00     0.049 C 
ATOM     16  C   LIG d   1       3.788  -0.685  -3.313  0.00  0.00     0.015 C 
ATOM     17  H   LIG d   1       6.710  -0.266  -2.261  0.00  0.00     0.052 H 
ATOM     18  C   LIG d   1       5.155   1.189  -2.687  0.00  0.00    -0.031 C 
ATOM     19  C   LIG d   1       3.830   0.483  -2.292  0.00  0.00    -0.035 C 
ATOM     20  H   LIG d   1       5.574   1.725  -1.836  0.00  0.00     0.028 H 
ATOM     21  H   LIG d   1       4.995   1.864  -3.529  0.00  0.00     0.028 H 
ATOM     22  H   LIG d   1       3.877   0.109  -1.269  0.00  0.00     0.028 H 
ATOM     23  H   LIG d   1       2.978   1.148  -2.426  0.00  0.00     0.028 H 
ATOM     24  H   LIG d   1       3.401  -0.340  -4.272  0.00  0.00     0.046 H 
ATOM     25  H   LIG d   1       3.177  -1.502  -2.929  0.00  0.00     0.046 H 
ATOM     26  O   LIG d   1       6.790  -2.577  -3.926  0.00  0.00    -0.276 OA
BRANCH  15  27
ATOM     27  C   LIG d   1       6.920   0.410  -4.301  0.00  0.00     0.066 C 
ATOM     28  H   LIG d   1       7.840  -0.174  -4.303  0.00  0.00     0.058 H 
ATOM     29  H   LIG d   1       6.365   0.217  -5.220  0.00  0.00     0.058 H 
BRANCH  27  30
ATOM     30  O   LIG d   1       7.238   1.801  -4.221  0.00  0.00    -0.381 OA
BRANCH  30  31
ATOM     31  C   LIG d   1       8.580   2.068  -3.812  0.00  0.00     0.036 C 
ATOM     32  H   LIG d   1       9.089   2.642  -4.587  0.00  0.00     0.052 H 
ATOM     33  H   LIG d   1       8.570   2.640  -2.884  0.00  0.00     0.052 H 
ATOM     34  H   LIG d   1       9.105   1.127  -3.653  0.00  0.00     0.052 H 
ENDBRANCH  30  31
ENDBRANCH  27  30
ENDBRANCH  15  27
ENDBRANCH  10  13
ENDBRANCH   1  10
BRANCH   3  35
ATOM     35  O   LIG d   1       4.306  -6.395  -5.316  0.00  0.00    -0.387 OA
ATOM     36  H   LIG d   1       4.628  -6.327  -4.406  0.00  0.00     0.210 HD
ENDBRANCH   3  35
BRANCH   7  37
ATOM     37  C   LIG d   1       3.696  -3.080  -8.759  0.00  0.00     0.041 C 
ATOM     38  H   LIG d   1       3.738  -3.539  -9.747  0.00  0.00     0.049 H 
ATOM     39  H   LIG d   1       2.678  -3.136  -8.375  0.00  0.00     0.049 H 
BRANCH  37  40
ATOM     40  N   LIG d   1       4.105  -1.676  -8.855  0.00  0.00    -0.306 N 
ATOM     41  C   LIG d   1       3.175  -0.712  -9.006  0.00  0.00     0.279 C 
ATOM     42  O   LIG d   1       1.996  -1.007  -9.064  0.00  0.00    -0.267 OA
ATOM     43  H   LIG d   1       5.045  -1.440  -8.810  0.00  0.00     0.149 HD
BRANCH  41  44
ATOM     44  C   LIG d   1       3.584   0.693  -9.102  0.00  0.00     0.189 A 
ATOM     45  O   LIG d   1       4.806   1.140  -9.459  0.00  0.00    -0.458 OA
ATOM     46  C   LIG d   1       4.813   2.480  -9.437  0.00  0.00     0.093 A 
ATOM     47  C   LIG d   1       3.590   2.915  -9.062  0.00  0.00    -0.023 A 
ATOM     48  H   LIG d   1       5.658   3.108  -9.677  0.00  0.00     0.103 H 
ATOM     49  C   LIG d   1       2.794   1.778  -8.853  0.00  0.00    -0.011 A 
ATOM     50  H   LIG d   1       3.281   3.944  -8.952  0.00  0.00     0.065 H 
ATOM     51  H   LIG d   1       1.757   1.764  -8.549  0.00  0.00     0.066 H 
ENDBRANCH  41  44
ENDBRANCH  37  40
ENDBRANCH   7  37
BRANCH   5  52
ATOM     52  O   LIG d   1       4.906  -6.248  -7.843  0.00  0.00    -0.387 OA
ATOM     53  H   LIG d   1       4.964  -6.976  -7.210  0.00  0.00     0.210 HD
ENDBRANCH   5  52
TORSDOF 10
ENDMDL
MODEL 6
REMARK VINA RESULT:      -5.8      2.867      6.424
REMARK  10 active torsions:
REMARK  status: ('A' for Active; 'I' for Inactive)
REMARK    1  A    between atoms: C_1  and  O_2 
REMARK    2  A    between atoms: O_2  and  C_3 
REMARK    3  A    between atoms: C_3  and  C_4 
REMARK       I    between atoms: N_9  and  C_10 
REMARK    4  A    between atoms: C_10  and  C_12 
REMARK    5  A    between atoms: C_12  and  C_13 
REMARK    6  A    between atoms: C_15  and  O_32 
REMARK    7  A    between atoms: C_17  and  O_31 
REMARK    8  A    between atoms: C_19  and  C_22 
REMARK    9  A    between atoms: C_22  and  N_23 
REMARK       I    between atoms: N_23  and  C_24 
REMARK   10  A    between atoms: C_24  and  C_26 
ROOT
ATOM      1  C   LIG d   1       6.006   0.241  -8.725  0.00  0.00     0.096 C 
ATOM      2  H   LIG d   1       6.440   1.210  -8.970  0.00  0.00     0.063 H 
ATOM      3  C   LIG d   1       5.135  -0.278  -9.897  0.00  0.00     0.110 C 
ATOM      4  H   LIG d   1       4.985  -1.356  -9.822  0.00  0.00     0.065 H 
ATOM      5  C   LIG d   1       3.804   0.480  -9.672  0.00  0.00     0.111 C 
ATOM      6  H   LIG d   1       2.954  -0.175  -9.859  0.00  0.00     0.065 H 
ATOM      7  C   LIG d   1       3.850   0.892  -8.187  0.00  0.00     0.103 C 
ATOM      8  H   LIG d   1       3.847   1.979  -8.104  0.00  0.00     0.064 H 
ATOM      9  O   LIG d   1       5.068   0.364  -7.635  0.00  0.00    -0.366 OA
ENDROOT
BRANCH   1  10
ATOM     10  C   LIG d   1       7.103  -0.770  -8.380  0.00  0.00     0.053 C 
ATOM     11  H   LIG d   1       7.381  -1.323  -9.276  0.00  0.00     0.038 H 
ATOM     12  H   LIG d   1       7.974  -0.242  -7.993  0.00  0.00     0.038 H 
BRANCH  10  13
ATOM     13  C   LIG d   1       6.591  -1.730  -7.337  0.00  0.00     0.218 C 
ATOM     14  N   LIG d   1       6.963  -1.587  -6.049  0.00  0.00    -0.296 N 
ATOM     15  C   LIG d   1       6.541  -2.447  -4.935  0.00  0.00     0.049 C 
ATOM     16  C   LIG d   1       7.865  -0.545  -5.526  0.00  0.00     0.015 C 
ATOM     17  H   LIG d   1       5.455  -2.427  -4.841  0.00  0.00     0.052 H 
ATOM     18  C   LIG d   1       7.192  -1.890  -3.653  0.00  0.00    -0.031 C 
ATOM     19  C   LIG d   1       7.489  -0.413  -4.027  0.00  0.00    -0.035 C 
ATOM     20  H   LIG d   1       6.498  -1.942  -2.813  0.00  0.00     0.028 H 
ATOM     21  H   LIG d   1       8.115  -2.423  -3.425  0.00  0.00     0.028 H 
ATOM     22  H   LIG d   1       6.603   0.209  -3.898  0.00  0.00     0.028 H 
ATOM     23  H   LIG d   1       8.326  -0.024  -3.448  0.00  0.00     0.028 H 
ATOM     24  H   LIG d   1       8.905  -0.856  -5.633  0.00  0.00     0.046 H 
ATOM     25  H   LIG d   1       7.696   0.399  -6.044  0.00  0.00     0.046 H 
ATOM     26  O   LIG d   1       5.844  -2.631  -7.656  0.00  0.00    -0.276 OA
BRANCH  15  27
ATOM     27  C   LIG d   1       7.013  -3.882  -5.177  0.00  0.00     0.066 C 
ATOM     28  H   LIG d   1       6.378  -4.573  -4.623  0.00  0.00     0.058 H 
ATOM     29  H   LIG d   1       6.956  -4.110  -6.242  0.00  0.00     0.058 H 
BRANCH  27  30
ATOM     30  O   LIG d   1       8.366  -4.019  -4.734  0.00  0.00    -0.381 OA
BRANCH  30  31
ATOM     31  C   LIG d   1       8.721  -5.349  -4.353  0.00  0.00     0.036 C 
ATOM     32  H   LIG d   1       9.538  -5.315  -3.632  0.00  0.00     0.052 H 
ATOM     33  H   LIG d   1       7.858  -5.841  -3.903  0.00  0.00     0.052 H 
ATOM     34  H   LIG d   1       9.038  -5.907  -5.235  0.00  0.00     0.052 H 
ENDBRANCH  30  31
ENDBRANCH  27  30
ENDBRANCH  15  27
ENDBRANCH  10  13
ENDBRANCH   1  10
BRANCH   3  35
ATOM     35  O   LIG d   1       5.714   0.069 -11.156  0.00  0.00    -0.387 OA
ATOM     36  H   LIG d   1       5.225  -0.267 -11.920  0.00  0.00     0.210 HD
ENDBRANCH   3  35
BRANCH   7  37
ATOM     37  C   LIG d   1       2.646   0.307  -7.448  0.00  0.00     0.041 C 
ATOM     38  H   LIG d   1       1.959   1.110  -7.178  0.00  0.00     0.049 H 
ATOM     39  H   LIG d   1       2.135  -0.407  -8.093  0.00  0.00     0.049 H 
BRANCH  37  40
ATOM     40  N   LIG d   1       3.103  -0.372  -6.233  0.00  0.00    -0.306 N 
ATOM     41  C   LIG d   1       2.961   0.225  -5.032  0.00  0.00     0.279 C 
ATOM     42  O   LIG d   1       2.455   1.329  -4.959  0.00  0.00    -0.267 OA
ATOM     43  H   LIG d   1       3.507  -1.252  -6.291  0.00  0.00     0.149 HD
BRANCH  41  44
ATOM     44  C   LIG d   1       3.417  -0.455  -3.816  0.00  0.00     0.189 A 
ATOM     45  O   LIG d   1       3.323  -1.777  -3.564  0.00  0.00    -0.458 OA
ATOM     46  C   LIG d   1       3.843  -2.037  -2.357  0.00  0.00     0.093 A 
ATOM     47  C   LIG d   1       4.280  -0.881  -1.813  0.00  0.00    -0.023 A 
ATOM     48  H   LIG d   1       3.902  -3.012  -1.895  0.00  0.00     0.103 H 
ATOM     49  C   LIG d   1       4.019   0.138  -2.743  0.00  0.00    -0.011 A 
ATOM     50  H   LIG d   1       4.749  -0.763  -0.847  0.00  0.00     0.065 H 
ATOM     51  H   LIG d   1       4.246   1.188  -2.630  0.00  0.00     0.066 H 
ENDBRANCH  41  44
ENDBRANCH  37  40
ENDBRANCH   7  37
BRANCH   5  52
ATOM     52  O   LIG d   1       3.740   1.636 -10.510  0.00  0.00    -0.387 OA
ATOM     53  H   LIG d   1       3.890   1.452 -11.447  0.00  0.00     0.210 HD
ENDBRANCH   5  52
TORSDOF 10
ENDMDL
MODEL 7
REMARK VINA RESULT:      -5.7      2.655      6.549
REMARK  10 active torsions:
REMARK  status: ('A' for Active; 'I' for Inactive)
REMARK    1  A    between atoms: C_1  and  O_2 
REMARK    2  A    between atoms: O_2  and  C_3 
REMARK    3  A    between atoms: C_3  and  C_4 
REMARK       I    between atoms: N_9  and  C_10 
REMARK    4  A    between atoms: C_10  and  C_12 
REMARK    5  A    between atoms: C_12  and  C_13 
REMARK    6  A    between atoms: C_15  and  O_32 
REMARK    7  A    between atoms: C_17  and  O_31 
REMARK    8  A    between atoms: C_19  and  C_22 
REMARK    9  A    between atoms: C_22  and  N_23 
REMARK       I    between atoms: N_23  and  C_24 
REMARK   10  A    between atoms: C_24  and  C_26 
ROOT
ATOM      1  C   LIG d   1       5.227  -1.608  -9.072  0.00  0.00     0.096 C 
ATOM      2  H   LIG d   1       5.425  -1.329 -10.108  0.00  0.00     0.063 H 
ATOM      3  C   LIG d   1       3.978  -2.522  -8.983  0.00  0.00     0.110 C 
ATOM      4  H   LIG d   1       3.969  -3.077  -8.045  0.00  0.00     0.065 H 
ATOM      5  C   LIG d   1       2.821  -1.494  -9.028  0.00  0.00     0.111 C 
ATOM      6  H   LIG d   1       2.034  -1.774  -8.328  0.00  0.00     0.065 H 
ATOM      7  C   LIG d   1       3.477  -0.167  -8.599  0.00  0.00     0.103 C 
ATOM      8  H   LIG d   1       3.419   0.556  -9.412  0.00  0.00     0.064 H 
ATOM      9  O   LIG d   1       4.854  -0.450  -8.296  0.00  0.00    -0.366 OA
ENDROOT
BRANCH   1  10
ATOM     10  C   LIG d   1       6.445  -2.300  -8.457  0.00  0.00     0.053 C 
ATOM     11  H   LIG d   1       6.131  -3.221  -7.967  0.00  0.00     0.038 H 
ATOM     12  H   LIG d   1       7.166  -2.532  -9.240  0.00  0.00     0.038 H 
BRANCH  10  13
ATOM     13  C   LIG d   1       7.084  -1.385  -7.442  0.00  0.00     0.218 C 
ATOM     14  N   LIG d   1       7.018  -1.684  -6.130  0.00  0.00    -0.296 N 
ATOM     15  C   LIG d   1       7.594  -0.884  -5.040  0.00  0.00     0.049 C 
ATOM     16  C   LIG d   1       6.351  -2.863  -5.550  0.00  0.00     0.015 C 
ATOM     17  H   LIG d   1       8.671  -0.789  -5.177  0.00  0.00     0.052 H 
ATOM     18  C   LIG d   1       7.293  -1.624  -3.720  0.00  0.00    -0.031 C 
ATOM     19  C   LIG d   1       7.057  -3.085  -4.187  0.00  0.00    -0.035 C 
ATOM     20  H   LIG d   1       8.146  -1.568  -3.043  0.00  0.00     0.028 H 
ATOM     21  H   LIG d   1       6.397  -1.221  -3.247  0.00  0.00     0.028 H 
ATOM     22  H   LIG d   1       8.003  -3.612  -4.315  0.00  0.00     0.028 H 
ATOM     23  H   LIG d   1       6.407  -3.616  -3.493  0.00  0.00     0.028 H 
ATOM     24  H   LIG d   1       5.289  -2.663  -5.401  0.00  0.00     0.046 H 
ATOM     25  H   LIG d   1       6.488  -3.732  -6.194  0.00  0.00     0.046 H 
ATOM     26  O   LIG d   1       7.657  -0.380  -7.808  0.00  0.00    -0.276 OA
BRANCH  15  27
ATOM     27  C   LIG d   1       6.950   0.505  -5.016  0.00  0.00     0.066 C 
ATOM     28  H   LIG d   1       7.347   1.103  -5.836  0.00  0.00     0.058 H 
ATOM     29  H   LIG d   1       5.870   0.407  -5.126  0.00  0.00     0.058 H 
BRANCH  27  30
ATOM     30  O   LIG d   1       7.245   1.144  -3.772  0.00  0.00    -0.381 OA
BRANCH  30  31
ATOM     31  C   LIG d   1       8.395   1.992  -3.812  0.00  0.00     0.036 C 
ATOM     32  H   LIG d   1       8.795   2.109  -2.805  0.00  0.00     0.052 H 
ATOM     33  H   LIG d   1       9.153   1.544  -4.455  0.00  0.00     0.052 H 
ATOM     34  H   LIG d   1       8.113   2.967  -4.208  0.00  0.00     0.052 H 
ENDBRANCH  30  31
ENDBRANCH  27  30
ENDBRANCH  15  27
ENDBRANCH  10  13
ENDBRANCH   1  10
BRANCH   3  35
ATOM     35  O   LIG d   1       3.916  -3.410 -10.101  0.00  0.00    -0.387 OA
ATOM     36  H   LIG d   1       3.069  -3.870 -10.190  0.00  0.00     0.210 HD
ENDBRANCH   3  35
BRANCH   7  37
ATOM     37  C   LIG d   1       2.774   0.383  -7.357  0.00  0.00     0.041 C 
ATOM     38  H   LIG d   1       3.056   1.426  -7.211  0.00  0.00     0.049 H 
ATOM     39  H   LIG d   1       1.695   0.315  -7.490  0.00  0.00     0.049 H 
BRANCH  37  40
ATOM     40  N   LIG d   1       3.172  -0.399  -6.184  0.00  0.00    -0.306 N 
ATOM     41  C   LIG d   1       3.146   0.163  -4.959  0.00  0.00     0.279 C 
ATOM     42  O   LIG d   1       2.793   1.320  -4.828  0.00  0.00    -0.267 OA
ATOM     43  H   LIG d   1       3.454  -1.321  -6.288  0.00  0.00     0.149 HD
BRANCH  41  44
ATOM     44  C   LIG d   1       3.544  -0.620  -3.784  0.00  0.00     0.189 A 
ATOM     45  O   LIG d   1       3.467  -1.961  -3.663  0.00  0.00    -0.458 OA
ATOM     46  C   LIG d   1       3.918  -2.324  -2.454  0.00  0.00     0.093 A 
ATOM     47  C   LIG d   1       4.293  -1.216  -1.779  0.00  0.00    -0.023 A 
ATOM     48  H   LIG d   1       3.972  -3.337  -2.082  0.00  0.00     0.103 H 
ATOM     49  C   LIG d   1       4.064  -0.119  -2.625  0.00  0.00    -0.011 A 
ATOM     50  H   LIG d   1       4.699  -1.181  -0.779  0.00  0.00     0.065 H 
ATOM     51  H   LIG d   1       4.258   0.919  -2.401  0.00  0.00     0.066 H 
ENDBRANCH  41  44
ENDBRANCH  37  40
ENDBRANCH   7  37
BRANCH   5  52
ATOM     52  O   LIG d   1       2.298  -1.387 -10.353  0.00  0.00    -0.387 OA
ATOM     53  H   LIG d   1       2.325  -2.214 -10.855  0.00  0.00     0.210 HD
ENDBRANCH   5  52
TORSDOF 10
ENDMDL
MODEL 8
REMARK VINA RESULT:      -5.7      4.275      7.290
REMARK  10 active torsions:
REMARK  status: ('A' for Active; 'I' for Inactive)
REMARK    1  A    between atoms: C_1  and  O_2 
REMARK    2  A    between atoms: O_2  and  C_3 
REMARK    3  A    between atoms: C_3  and  C_4 
REMARK       I    between atoms: N_9  and  C_10 
REMARK    4  A    between atoms: C_10  and  C_12 
REMARK    5  A    between atoms: C_12  and  C_13 
REMARK    6  A    between atoms: C_15  and  O_32 
REMARK    7  A    between atoms: C_17  and  O_31 
REMARK    8  A    between atoms: C_19  and  C_22 
REMARK    9  A    between atoms: C_22  and  N_23 
REMARK       I    between atoms: N_23  and  C_24 
REMARK   10  A    between atoms: C_24  and  C_26 
ROOT
ATOM      1  C   LIG d   1      10.254   4.256  -5.124  0.00  0.00     0.096 C 
ATOM      2  H   LIG d   1       9.760   4.975  -5.778  0.00  0.00     0.063 H 
ATOM      3  C   LIG d   1      10.675   2.995  -5.919  0.00  0.00     0.110 C 
ATOM      4  H   LIG d   1      11.450   2.441  -5.389  0.00  0.00     0.065 H 
ATOM      5  C   LIG d   1       9.355   2.186  -5.967  0.00  0.00     0.111 C 
ATOM      6  H   LIG d   1       9.552   1.125  -5.815  0.00  0.00     0.065 H 
ATOM      7  C   LIG d   1       8.522   2.753  -4.801  0.00  0.00     0.103 C 
ATOM      8  H   LIG d   1       7.612   3.214  -5.184  0.00  0.00     0.064 H 
ATOM      9  O   LIG d   1       9.329   3.743  -4.141  0.00  0.00    -0.366 OA
ENDROOT
BRANCH   1  10
ATOM     10  C   LIG d   1      11.467   4.893  -4.442  0.00  0.00     0.053 C 
ATOM     11  H   LIG d   1      11.938   4.163  -3.784  0.00  0.00     0.038 H 
ATOM     12  H   LIG d   1      12.181   5.215  -5.199  0.00  0.00     0.038 H 
BRANCH  10  13
ATOM     13  C   LIG d   1      11.021   6.084  -3.633  0.00  0.00     0.218 C 
ATOM     14  N   LIG d   1      11.012   6.019  -2.287  0.00  0.00    -0.296 N 
ATOM     15  C   LIG d   1      10.603   7.101  -1.379  0.00  0.00     0.049 C 
ATOM     16  C   LIG d   1      11.405   4.849  -1.480  0.00  0.00     0.015 C 
ATOM     17  H   LIG d   1      11.230   7.978  -1.541  0.00  0.00     0.052 H 
ATOM     18  C   LIG d   1      10.782   6.582   0.062  0.00  0.00    -0.031 C 
ATOM     19  C   LIG d   1      11.817   5.438  -0.105  0.00  0.00    -0.035 C 
ATOM     20  H   LIG d   1      11.177   7.367   0.708  0.00  0.00     0.028 H 
ATOM     21  H   LIG d   1       9.841   6.196   0.454  0.00  0.00     0.028 H 
ATOM     22  H   LIG d   1      12.833   5.831  -0.135  0.00  0.00     0.028 H 
ATOM     23  H   LIG d   1      11.709   4.695   0.684  0.00  0.00     0.028 H 
ATOM     24  H   LIG d   1      10.562   4.167  -1.366  0.00  0.00     0.046 H 
ATOM     25  H   LIG d   1      12.249   4.336  -1.941  0.00  0.00     0.046 H 
ATOM     26  O   LIG d   1      10.670   7.101  -4.193  0.00  0.00    -0.276 OA
BRANCH  15  27
ATOM     27  C   LIG d   1       9.136   7.460  -1.625  0.00  0.00     0.066 C 
ATOM     28  H   LIG d   1       9.046   7.993  -2.572  0.00  0.00     0.058 H 
ATOM     29  H   LIG d   1       8.540   6.548  -1.662  0.00  0.00     0.058 H 
BRANCH  27  30
ATOM     30  O   LIG d   1       8.666   8.292  -0.562  0.00  0.00    -0.381 OA
BRANCH  30  31
ATOM     31  C   LIG d   1       8.791   9.692  -0.821  0.00  0.00     0.036 C 
ATOM     32  H   LIG d   1       8.797   9.863  -1.898  0.00  0.00     0.052 H 
ATOM     33  H   LIG d   1       7.949  10.221  -0.374  0.00  0.00     0.052 H 
ATOM     34  H   LIG d   1       9.721  10.060  -0.389  0.00  0.00     0.052 H 
ENDBRANCH  30  31
ENDBRANCH  27  30
ENDBRANCH  15  27
ENDBRANCH  10  13
ENDBRANCH   1  10
BRANCH   3  35
ATOM     35  O   LIG d   1      11.109   3.342  -7.235  0.00  0.00    -0.387 OA
ATOM     36  H   LIG d   1      12.045   3.161  -7.402  0.00  0.00     0.210 HD
ENDBRANCH   3  35
BRANCH   7  37
ATOM     37  C   LIG d   1       8.170   1.632  -3.821  0.00  0.00     0.041 C 
ATOM     38  H   LIG d   1       8.677   0.715  -4.121  0.00  0.00     0.049 H 
ATOM     39  H   LIG d   1       8.488   1.913  -2.818  0.00  0.00     0.049 H 
BRANCH  37  40
ATOM     40  N   LIG d   1       6.721   1.414  -3.832  0.00  0.00    -0.306 N 
ATOM     41  C   LIG d   1       6.218   0.212  -3.483  0.00  0.00     0.279 C 
ATOM     42  O   LIG d   1       6.967  -0.691  -3.162  0.00  0.00    -0.267 OA
ATOM     43  H   LIG d   1       6.123   2.133  -4.088  0.00  0.00     0.149 HD
BRANCH  41  44
ATOM     44  C   LIG d   1       4.768  -0.007  -3.493  0.00  0.00     0.189 A 
ATOM     45  O   LIG d   1       3.909   0.419  -4.442  0.00  0.00    -0.458 OA
ATOM     46  C   LIG d   1       2.665   0.036  -4.120  0.00  0.00     0.093 A 
ATOM     47  C   LIG d   1       2.709  -0.644  -2.953  0.00  0.00    -0.023 A 
ATOM     48  H   LIG d   1       1.776   0.238  -4.698  0.00  0.00     0.103 H 
ATOM     49  C   LIG d   1       4.052  -0.682  -2.547  0.00  0.00    -0.011 A 
ATOM     50  H   LIG d   1       1.869  -1.080  -2.434  0.00  0.00     0.065 H 
ATOM     51  H   LIG d   1       4.443  -1.152  -1.656  0.00  0.00     0.066 H 
ENDBRANCH  41  44
ENDBRANCH  37  40
ENDBRANCH   7  37
BRANCH   5  52
ATOM     52  O   LIG d   1       8.684   2.399  -7.211  0.00  0.00    -0.387 OA
ATOM     53  H   LIG d   1       9.082   1.932  -7.958  0.00  0.00     0.210 HD
ENDBRANCH   5  52
TORSDOF 10
ENDMDL
MODEL 9
REMARK VINA RESULT:      -5.6      2.290      5.638
REMARK  10 active torsions:
REMARK  status: ('A' for Active; 'I' for Inactive)
REMARK    1  A    between atoms: C_1  and  O_2 
REMARK    2  A    between atoms: O_2  and  C_3 
REMARK    3  A    between atoms: C_3  and  C_4 
REMARK       I    between atoms: N_9  and  C_10 
REMARK    4  A    between atoms: C_10  and  C_12 
REMARK    5  A    between atoms: C_12  and  C_13 
REMARK    6  A    between atoms: C_15  and  O_32 
REMARK    7  A    between atoms: C_17  and  O_31 
REMARK    8  A    between atoms: C_19  and  C_22 
REMARK    9  A    between atoms: C_22  and  N_23 
REMARK       I    between atoms: N_23  and  C_24 
REMARK   10  A    between atoms: C_24  and  C_26 
ROOT
ATOM      1  C   LIG d   1       5.553  -0.022  -3.789  0.00  0.00     0.096 C 
ATOM      2  H   LIG d   1       5.956  -1.035  -3.783  0.00  0.00     0.063 H 
ATOM      3  C   LIG d   1       4.391   0.108  -2.772  0.00  0.00     0.110 C 
ATOM      4  H   LIG d   1       4.214   1.153  -2.515  0.00  0.00     0.065 H 
ATOM      5  C   LIG d   1       3.197  -0.474  -3.567  0.00  0.00     0.111 C 
ATOM      6  H   LIG d   1       2.297   0.115  -3.392  0.00  0.00     0.065 H 
ATOM      7  C   LIG d   1       3.635  -0.363  -5.041  0.00  0.00     0.103 C 
ATOM      8  H   LIG d   1       3.704  -1.357  -5.483  0.00  0.00     0.064 H 
ATOM      9  O   LIG d   1       4.926   0.269  -5.057  0.00  0.00    -0.366 OA
ENDROOT
BRANCH   1  10
ATOM     10  C   LIG d   1       6.651   0.999  -3.485  0.00  0.00     0.053 C 
ATOM     11  H   LIG d   1       6.355   1.976  -3.865  0.00  0.00     0.038 H 
ATOM     12  H   LIG d   1       6.803   1.059  -2.408  0.00  0.00     0.038 H 
BRANCH  10  13
ATOM     13  C   LIG d   1       7.934   0.569  -4.150  0.00  0.00     0.218 C 
ATOM     14  N   LIG d   1       9.009   1.382  -4.128  0.00  0.00    -0.296 N 
ATOM     15  C   LIG d   1      10.316   1.089  -4.734  0.00  0.00     0.049 C 
ATOM     16  C   LIG d   1       9.067   2.714  -3.499  0.00  0.00     0.015 C 
ATOM     17  H   LIG d   1      10.733   0.182  -4.297  0.00  0.00     0.052 H 
ATOM     18  C   LIG d   1      11.238   2.290  -4.437  0.00  0.00    -0.031 C 
ATOM     19  C   LIG d   1      10.572   2.942  -3.196  0.00  0.00    -0.035 C 
ATOM     20  H   LIG d   1      12.247   1.952  -4.199  0.00  0.00     0.028 H 
ATOM     21  H   LIG d   1      11.251   2.984  -5.276  0.00  0.00     0.028 H 
ATOM     22  H   LIG d   1      10.870   2.432  -2.279  0.00  0.00     0.028 H 
ATOM     23  H   LIG d   1      10.801   4.005  -3.143  0.00  0.00     0.028 H 
ATOM     24  H   LIG d   1       8.697   3.474  -4.187  0.00  0.00     0.046 H 
ATOM     25  H   LIG d   1       8.489   2.722  -2.575  0.00  0.00     0.046 H 
ATOM     26  O   LIG d   1       7.999  -0.507  -4.704  0.00  0.00    -0.276 OA
BRANCH  15  27
ATOM     27  C   LIG d   1      10.162   0.914  -6.246  0.00  0.00     0.066 C 
ATOM     28  H   LIG d   1      11.045   0.414  -6.646  0.00  0.00     0.058 H 
ATOM     29  H   LIG d   1       9.278   0.311  -6.454  0.00  0.00     0.058 H 
BRANCH  27  30
ATOM     30  O   LIG d   1      10.019   2.196  -6.862  0.00  0.00    -0.381 OA
BRANCH  30  31
ATOM     31  C   LIG d   1       8.781   2.375  -7.552  0.00  0.00     0.036 C 
ATOM     32  H   LIG d   1       8.494   1.439  -8.032  0.00  0.00     0.052 H 
ATOM     33  H   LIG d   1       8.008   2.671  -6.842  0.00  0.00     0.052 H 
ATOM     34  H   LIG d   1       8.895   3.151  -8.308  0.00  0.00     0.052 H 
ENDBRANCH  30  31
ENDBRANCH  27  30
ENDBRANCH  15  27
ENDBRANCH  10  13
ENDBRANCH   1  10
BRANCH   3  35
ATOM     35  O   LIG d   1       4.649  -0.667  -1.600  0.00  0.00    -0.387 OA
ATOM     36  H   LIG d   1       4.143  -1.490  -1.553  0.00  0.00     0.210 HD
ENDBRANCH   3  35
BRANCH   7  37
ATOM     37  C   LIG d   1       2.629   0.487  -5.819  0.00  0.00     0.041 C 
ATOM     38  H   LIG d   1       1.676   0.498  -5.290  0.00  0.00     0.049 H 
ATOM     39  H   LIG d   1       3.007   1.505  -5.909  0.00  0.00     0.049 H 
BRANCH  37  40
ATOM     40  N   LIG d   1       2.439  -0.083  -7.155  0.00  0.00    -0.306 N 
ATOM     41  C   LIG d   1       2.823   0.610  -8.246  0.00  0.00     0.279 C 
ATOM     42  O   LIG d   1       3.327   1.711  -8.120  0.00  0.00    -0.267 OA
ATOM     43  H   LIG d   1       2.038  -0.960  -7.256  0.00  0.00     0.149 HD
BRANCH  41  44
ATOM     44  C   LIG d   1       2.634   0.039  -9.583  0.00  0.00     0.189 A 
ATOM     45  O   LIG d   1       3.523   0.081 -10.596  0.00  0.00    -0.458 OA
ATOM     46  C   LIG d   1       3.010  -0.542 -11.665  0.00  0.00     0.093 A 
ATOM     47  C   LIG d   1       1.776  -0.995 -11.353  0.00  0.00    -0.023 A 
ATOM     48  H   LIG d   1       3.501  -0.661 -12.619  0.00  0.00     0.103 H 
ATOM     49  C   LIG d   1       1.529  -0.634 -10.018  0.00  0.00    -0.011 A 
ATOM     50  H   LIG d   1       1.108  -1.539 -12.004  0.00  0.00     0.065 H 
ATOM     51  H   LIG d   1       0.636  -0.845  -9.449  0.00  0.00     0.066 H 
ENDBRANCH  41  44
ENDBRANCH  37  40
ENDBRANCH   7  37
BRANCH   5  52
ATOM     52  O   LIG d   1       2.978  -1.841  -3.212  0.00  0.00    -0.387 OA
ATOM     53  H   LIG d   1       2.773  -1.976  -2.277  0.00  0.00     0.210 HD
ENDBRANCH   5  52
TORSDOF 10
ENDMDL
