MODEL 1
REMARK VINA RESULT:      -6.9      0.000      0.000
REMARK  9 active torsions:
REMARK  status: ('A' for Active; 'I' for Inactive)
REMARK    1  A    between atoms: C_1  and  O_2 
REMARK    2  A    between atoms: O_2  and  C_3 
REMARK    3  A    between atoms: C_6  and  C_9 
REMARK       I    between atoms: C_9  and  N_11 
REMARK    4  A    between atoms: N_11  and  C_12 
REMARK    5  A    between atoms: C_19  and  C_24 
REMARK    6  A    between atoms: C_27  and  O_32 
REMARK    7  A    between atoms: C_28  and  O_30 
REMARK    8  A    between atoms: O_30  and  C_31 
REMARK    9  A    between atoms: O_32  and  C_33 
ROOT
ATOM      1  C   LIG d   1       9.917   3.977  -3.232  0.00  0.00     0.222 A 
ATOM      2  N   LIG d   1      10.242   4.461  -4.423  0.00  0.00    -0.222 NA
ATOM      3  C   LIG d   1       9.842   3.859  -5.529  0.00  0.00     0.043 A 
ATOM      4  C   LIG d   1       9.057   2.705  -5.417  0.00  0.00     0.057 A 
ATOM      5  C   LIG d   1       8.732   2.225  -4.145  0.00  0.00     0.057 A 
ATOM      6  N   LIG d   1       9.177   2.885  -3.088  0.00  0.00    -0.218 NA
ATOM      7  C   LIG d   1       7.901   0.987  -3.958  0.00  0.00    -0.002 C 
ATOM      8  C   LIG d   1       7.056   0.699  -5.196  0.00  0.00    -0.003 C 
ATOM      9  H   LIG d   1       6.321   1.493  -5.328  0.00  0.00     0.036 H 
ATOM     10  C   LIG d   1       7.963   0.632  -6.431  0.00  0.00     0.018 C 
ATOM     11  C   LIG d   1       8.577   2.005  -6.618  0.00  0.00     0.167 C 
ATOM     12  O   LIG d   1       8.669   2.509  -7.719  0.00  0.00    -0.292 OA
ATOM     13  H   LIG d   1      10.111   4.252  -6.499  0.00  0.00     0.084 H 
ATOM     14  H   LIG d   1       8.559   0.139  -3.770  0.00  0.00     0.033 H 
ATOM     15  H   LIG d   1       7.242   1.125  -3.101  0.00  0.00     0.033 H 
ATOM     16  H   LIG d   1       8.675  -0.056  -6.286  0.00  0.00     0.035 H 
ATOM     17  H   LIG d   1       7.375   0.367  -7.310  0.00  0.00     0.035 H 
ENDROOT
BRANCH   8  18
ATOM     18  C   LIG d   1       6.346  -0.619  -5.023  0.00  0.00    -0.040 A 
ATOM     19  C   LIG d   1       5.215  -0.694  -4.230  0.00  0.00    -0.013 A 
ATOM     20  C   LIG d   1       4.557  -1.903  -4.075  0.00  0.00     0.162 A 
ATOM     21  H   LIG d   1       4.842   0.191  -3.735  0.00  0.00     0.066 H 
ATOM     22  C   LIG d   1       5.043  -3.043  -4.709  0.00  0.00     0.162 A 
ATOM     23  C   LIG d   1       6.179  -2.961  -5.499  0.00  0.00    -0.016 A 
ATOM     24  C   LIG d   1       6.828  -1.751  -5.653  0.00  0.00    -0.055 A 
ATOM     25  H   LIG d   1       6.559  -3.844  -5.992  0.00  0.00     0.066 H 
ATOM     26  H   LIG d   1       7.713  -1.688  -6.269  0.00  0.00     0.062 H 
BRANCH  20  27
ATOM     27  O   LIG d   1       3.443  -1.978  -3.300  0.00  0.00    -0.491 OA
BRANCH  27  28
ATOM     28  C   LIG d   1       2.667  -0.786  -3.162  0.00  0.00     0.079 C 
ATOM     29  H   LIG d   1       3.056  -0.193  -2.335  0.00  0.00     0.066 H 
ATOM     30  H   LIG d   1       2.725  -0.207  -4.085  0.00  0.00     0.066 H 
ATOM     31  H   LIG d   1       1.628  -1.049  -2.963  0.00  0.00     0.066 H 
ENDBRANCH  27  28
ENDBRANCH  20  27
BRANCH  22  32
ATOM     32  O   LIG d   1       4.404  -4.233  -4.556  0.00  0.00    -0.491 OA
BRANCH  32  33
ATOM     33  C   LIG d   1       4.707  -5.260  -5.504  0.00  0.00     0.079 C 
ATOM     34  H   LIG d   1       4.491  -6.234  -5.067  0.00  0.00     0.066 H 
ATOM     35  H   LIG d   1       4.100  -5.119  -6.398  0.00  0.00     0.066 H 
ATOM     36  H   LIG d   1       5.763  -5.206  -5.770  0.00  0.00     0.066 H 
ENDBRANCH  32  33
ENDBRANCH  22  32
ENDBRANCH   8  18
BRANCH   1  37
ATOM     37  N   LIG d   1      10.359   4.636  -2.099  0.00  0.00    -0.251 N 
ATOM     38  C   LIG d   1      10.021   5.924  -1.893  0.00  0.00     0.250 C 
ATOM     39  O   LIG d   1       9.327   6.507  -2.704  0.00  0.00    -0.270 OA
ATOM     40  H   LIG d   1      10.913   4.171  -1.453  0.00  0.00     0.158 HD
BRANCH  38  41
ATOM     41  C   LIG d   1      10.492   6.627  -0.686  0.00  0.00     0.037 A 
ATOM     42  C   LIG d   1      10.609   8.020  -0.687  0.00  0.00    -0.046 A 
ATOM     43  C   LIG d   1      11.045   8.673   0.444  0.00  0.00    -0.019 A 
ATOM     44  H   LIG d   1      10.355   8.583  -1.573  0.00  0.00     0.063 H 
ATOM     45  C   LIG d   1      11.379   7.948   1.582  0.00  0.00     0.120 A 
ATOM     46  H   LIG d   1      11.132   9.749   0.445  0.00  0.00     0.065 H 
ATOM     47  C   LIG d   1      11.263   6.563   1.588  0.00  0.00    -0.019 A 
ATOM     48  C   LIG d   1      10.823   5.903   0.463  0.00  0.00    -0.046 A 
ATOM     49  H   LIG d   1      11.519   6.005   2.476  0.00  0.00     0.065 H 
ATOM     50  H   LIG d   1      10.734   4.826   0.468  0.00  0.00     0.063 H 
BRANCH  45  51
ATOM     51  O   LIG d   1      11.813   8.596   2.693  0.00  0.00    -0.495 OA
BRANCH  51  52
ATOM     52  C   LIG d   1      12.262   9.943   2.526  0.00  0.00     0.079 C 
ATOM     53  H   LIG d   1      12.770  10.040   1.567  0.00  0.00     0.066 H 
ATOM     54  H   LIG d   1      11.406  10.617   2.553  0.00  0.00     0.066 H 
ATOM     55  H   LIG d   1      12.952  10.198   3.331  0.00  0.00     0.066 H 
ENDBRANCH  51  52
ENDBRANCH  45  51
ENDBRANCH  38  41
ENDBRANCH   1  37
TORSDOF 9
ENDMDL
MODEL 2
REMARK VINA RESULT:      -6.5      1.635      2.403
REMARK  9 active torsions:
REMARK  status: ('A' for Active; 'I' for Inactive)
REMARK    1  A    between atoms: C_1  and  O_2 
REMARK    2  A    between atoms: O_2  and  C_3 
REMARK    3  A    between atoms: C_6  and  C_9 
REMARK       I    between atoms: C_9  and  N_11 
REMARK    4  A    between atoms: N_11  and  C_12 
REMARK    5  A    between atoms: C_19  and  C_24 
REMARK    6  A    between atoms: C_27  and  O_32 
REMARK    7  A    between atoms: C_28  and  O_30 
REMARK    8  A    between atoms: O_30  and  C_31 
REMARK    9  A    between atoms: O_32  and  C_33 
ROOT
ATOM      1  C   LIG d   1      10.917   6.293  -2.983  0.00  0.00     0.222 A 
ATOM      2  N   LIG d   1      11.144   6.733  -4.213  0.00  0.00    -0.222 NA
ATOM      3  C   LIG d   1      10.763   6.027  -5.264  0.00  0.00     0.043 A 
ATOM      4  C   LIG d   1      10.103   4.811  -5.050  0.00  0.00     0.057 A 
ATOM      5  C   LIG d   1       9.879   4.381  -3.738  0.00  0.00     0.057 A 
ATOM      6  N   LIG d   1      10.297   5.146  -2.743  0.00  0.00    -0.218 NA
ATOM      7  C   LIG d   1       9.184   3.082  -3.443  0.00  0.00    -0.002 C 
ATOM      8  C   LIG d   1       8.324   2.637  -4.623  0.00  0.00    -0.003 C 
ATOM      9  H   LIG d   1       7.508   3.345  -4.766  0.00  0.00     0.036 H 
ATOM     10  C   LIG d   1       9.183   2.583  -5.892  0.00  0.00     0.018 C 
ATOM     11  C   LIG d   1       9.648   3.995  -6.186  0.00  0.00     0.167 C 
ATOM     12  O   LIG d   1       9.646   4.437  -7.316  0.00  0.00    -0.292 OA
ATOM     13  H   LIG d   1      10.952   6.385  -6.265  0.00  0.00     0.084 H 
ATOM     14  H   LIG d   1       9.932   2.316  -3.237  0.00  0.00     0.033 H 
ATOM     15  H   LIG d   1       8.549   3.207  -2.566  0.00  0.00     0.033 H 
ATOM     16  H   LIG d   1       9.966   1.978  -5.741  0.00  0.00     0.035 H 
ATOM     17  H   LIG d   1       8.591   2.208  -6.726  0.00  0.00     0.035 H 
ENDROOT
BRANCH   8  18
ATOM     18  C   LIG d   1       7.757   1.269  -4.342  0.00  0.00    -0.040 A 
ATOM     19  C   LIG d   1       6.728   1.123  -3.430  0.00  0.00    -0.013 A 
ATOM     20  C   LIG d   1       6.202  -0.133  -3.175  0.00  0.00     0.162 A 
ATOM     21  H   LIG d   1       6.332   1.988  -2.919  0.00  0.00     0.066 H 
ATOM     22  C   LIG d   1       6.717  -1.247  -3.831  0.00  0.00     0.162 A 
ATOM     23  C   LIG d   1       7.751  -1.094  -4.740  0.00  0.00    -0.016 A 
ATOM     24  C   LIG d   1       8.269   0.162  -4.994  0.00  0.00    -0.055 A 
ATOM     25  H   LIG d   1       8.155  -1.957  -5.250  0.00  0.00     0.066 H 
ATOM     26  H   LIG d   1       9.076   0.280  -5.703  0.00  0.00     0.062 H 
BRANCH  20  27
ATOM     27  O   LIG d   1       5.187  -0.278  -2.283  0.00  0.00    -0.491 OA
BRANCH  27  28
ATOM     28  C   LIG d   1       4.564   0.917  -1.808  0.00  0.00     0.079 C 
ATOM     29  H   LIG d   1       3.997   0.697  -0.904  0.00  0.00     0.066 H 
ATOM     30  H   LIG d   1       5.329   1.661  -1.586  0.00  0.00     0.066 H 
ATOM     31  H   LIG d   1       3.891   1.306  -2.573  0.00  0.00     0.066 H 
ENDBRANCH  27  28
ENDBRANCH  20  27
BRANCH  22  32
ATOM     32  O   LIG d   1       6.207  -2.483  -3.580  0.00  0.00    -0.491 OA
BRANCH  32  33
ATOM     33  C   LIG d   1       5.599  -3.168  -4.678  0.00  0.00     0.079 C 
ATOM     34  H   LIG d   1       4.516  -3.109  -4.589  0.00  0.00     0.066 H 
ATOM     35  H   LIG d   1       5.914  -2.706  -5.614  0.00  0.00     0.066 H 
ATOM     36  H   LIG d   1       5.908  -4.214  -4.668  0.00  0.00     0.066 H 
ENDBRANCH  32  33
ENDBRANCH  22  32
ENDBRANCH   8  18
BRANCH   1  37
ATOM     37  N   LIG d   1      11.336   7.061  -1.911  0.00  0.00    -0.251 N 
ATOM     38  C   LIG d   1      10.460   7.860  -1.271  0.00  0.00     0.250 C 
ATOM     39  O   LIG d   1       9.301   7.906  -1.636  0.00  0.00    -0.270 OA
ATOM     40  H   LIG d   1      12.260   7.024  -1.620  0.00  0.00     0.158 HD
BRANCH  38  41
ATOM     41  C   LIG d   1      10.906   8.679  -0.129  0.00  0.00     0.037 A 
ATOM     42  C   LIG d   1      10.808  10.072  -0.185  0.00  0.00    -0.046 A 
ATOM     43  C   LIG d   1      11.221  10.832   0.887  0.00  0.00    -0.019 A 
ATOM     44  H   LIG d   1      10.406  10.551  -1.065  0.00  0.00     0.063 H 
ATOM     45  C   LIG d   1      11.745  10.217   2.017  0.00  0.00     0.120 A 
ATOM     46  H   LIG d   1      11.142  11.909   0.846  0.00  0.00     0.065 H 
ATOM     47  C   LIG d   1      11.843   8.832   2.078  0.00  0.00    -0.019 A 
ATOM     48  C   LIG d   1      11.428   8.064   1.014  0.00  0.00    -0.046 A 
ATOM     49  H   LIG d   1      12.247   8.358   2.960  0.00  0.00     0.065 H 
ATOM     50  H   LIG d   1      11.505   6.987   1.060  0.00  0.00     0.063 H 
BRANCH  45  51
ATOM     51  O   LIG d   1      12.156  10.971   3.069  0.00  0.00    -0.495 OA
BRANCH  51  52
ATOM     52  C   LIG d   1      12.592  10.273   4.237  0.00  0.00     0.079 C 
ATOM     53  H   LIG d   1      13.164  10.950   4.872  0.00  0.00     0.066 H 
ATOM     54  H   LIG d   1      11.725   9.906   4.786  0.00  0.00     0.066 H 
ATOM     55  H   LIG d   1      13.220   9.432   3.944  0.00  0.00     0.066 H 
ENDBRANCH  51  52
ENDBRANCH  45  51
ENDBRANCH  38  41
ENDBRANCH   1  37
TORSDOF 9
ENDMDL
MODEL 3
REMARK VINA RESULT:      -6.5      3.725     10.684
REMARK  9 active torsions:
REMARK  status: ('A' for Active; 'I' for Inactive)
REMARK    1  A    between atoms: C_1  and  O_2 
REMARK    2  A    between atoms: O_2  and  C_3 
REMARK    3  A    between atoms: C_6  and  C_9 
REMARK       I    between atoms: C_9  and  N_11 
REMARK    4  A    between atoms: N_11  and  C_12 
REMARK    5  A    between atoms: C_19  and  C_24 
REMARK    6  A    between atoms: C_27  and  O_32 
REMARK    7  A    between atoms: C_28  and  O_30 
REMARK    8  A    between atoms: O_30  and  C_31 
REMARK    9  A    between atoms: O_32  and  C_33 
ROOT
ATOM      1  C   LIG d   1       9.120   2.314  -4.055  0.00  0.00     0.222 A 
ATOM      2  N   LIG d   1       9.911   2.256  -2.992  0.00  0.00    -0.222 NA
ATOM      3  C   LIG d   1      10.614   3.310  -2.616  0.00  0.00     0.043 A 
ATOM      4  C   LIG d   1      10.497   4.493  -3.355  0.00  0.00     0.057 A 
ATOM      5  C   LIG d   1       9.651   4.517  -4.469  0.00  0.00     0.057 A 
ATOM      6  N   LIG d   1       8.986   3.416  -4.781  0.00  0.00    -0.218 NA
ATOM      7  C   LIG d   1       9.489   5.753  -5.309  0.00  0.00    -0.002 C 
ATOM      8  C   LIG d   1       9.865   7.006  -4.523  0.00  0.00    -0.003 C 
ATOM      9  H   LIG d   1       9.158   7.148  -3.705  0.00  0.00     0.036 H 
ATOM     10  C   LIG d   1      11.281   6.848  -3.954  0.00  0.00     0.018 C 
ATOM     11  C   LIG d   1      11.249   5.696  -2.969  0.00  0.00     0.167 C 
ATOM     12  O   LIG d   1      11.823   5.764  -1.903  0.00  0.00    -0.292 OA
ATOM     13  H   LIG d   1      11.261   3.260  -1.752  0.00  0.00     0.084 H 
ATOM     14  H   LIG d   1      10.130   5.675  -6.186  0.00  0.00     0.033 H 
ATOM     15  H   LIG d   1       8.450   5.832  -5.631  0.00  0.00     0.033 H 
ATOM     16  H   LIG d   1      11.920   6.658  -4.699  0.00  0.00     0.035 H 
ATOM     17  H   LIG d   1      11.579   7.763  -3.442  0.00  0.00     0.035 H 
ENDROOT
BRANCH   8  18
ATOM     18  C   LIG d   1       9.821   8.203  -5.437  0.00  0.00    -0.040 A 
ATOM     19  C   LIG d   1       9.595   8.029  -6.790  0.00  0.00    -0.013 A 
ATOM     20  C   LIG d   1       9.549   9.129  -7.632  0.00  0.00     0.162 A 
ATOM     21  H   LIG d   1       9.450   7.037  -7.191  0.00  0.00     0.066 H 
ATOM     22  C   LIG d   1       9.741  10.407  -7.114  0.00  0.00     0.162 A 
ATOM     23  C   LIG d   1       9.972  10.573  -5.758  0.00  0.00    -0.016 A 
ATOM     24  C   LIG d   1      10.012   9.471  -4.923  0.00  0.00    -0.055 A 
ATOM     25  H   LIG d   1      10.123  11.563  -5.352  0.00  0.00     0.066 H 
ATOM     26  H   LIG d   1      10.193   9.602  -3.866  0.00  0.00     0.062 H 
BRANCH  20  27
ATOM     27  O   LIG d   1       9.322   8.961  -8.961  0.00  0.00    -0.491 OA
BRANCH  27  28
ATOM     28  C   LIG d   1      10.280   8.192  -9.691  0.00  0.00     0.079 C 
ATOM     29  H   LIG d   1      11.286   8.506  -9.413  0.00  0.00     0.066 H 
ATOM     30  H   LIG d   1      10.151   7.135  -9.458  0.00  0.00     0.066 H 
ATOM     31  H   LIG d   1      10.134   8.348 -10.760  0.00  0.00     0.066 H 
ENDBRANCH  27  28
ENDBRANCH  20  27
BRANCH  22  32
ATOM     32  O   LIG d   1       9.702  11.489  -7.936  0.00  0.00    -0.491 OA
BRANCH  32  33
ATOM     33  C   LIG d   1       9.638  12.774  -7.314  0.00  0.00     0.079 C 
ATOM     34  H   LIG d   1      10.645  13.116  -7.078  0.00  0.00     0.066 H 
ATOM     35  H   LIG d   1       9.162  13.482  -7.993  0.00  0.00     0.066 H 
ATOM     36  H   LIG d   1       9.054  12.704  -6.396  0.00  0.00     0.066 H 
ENDBRANCH  32  33
ENDBRANCH  22  32
ENDBRANCH   8  18
BRANCH   1  37
ATOM     37  N   LIG d   1       8.405   1.187  -4.418  0.00  0.00    -0.251 N 
ATOM     38  C   LIG d   1       7.187   0.962  -3.886  0.00  0.00     0.250 C 
ATOM     39  O   LIG d   1       6.717   1.749  -3.088  0.00  0.00    -0.270 OA
ATOM     40  H   LIG d   1       8.780   0.559  -5.055  0.00  0.00     0.158 HD
BRANCH  38  41
ATOM     41  C   LIG d   1       6.424  -0.240  -4.272  0.00  0.00     0.037 A 
ATOM     42  C   LIG d   1       6.114  -0.471  -5.616  0.00  0.00    -0.046 A 
ATOM     43  C   LIG d   1       5.405  -1.596  -5.972  0.00  0.00    -0.019 A 
ATOM     44  H   LIG d   1       6.432   0.231  -6.373  0.00  0.00     0.063 H 
ATOM     45  C   LIG d   1       4.989  -2.496  -4.998  0.00  0.00     0.120 A 
ATOM     46  H   LIG d   1       5.168  -1.777  -7.010  0.00  0.00     0.065 H 
ATOM     47  C   LIG d   1       5.296  -2.271  -3.661  0.00  0.00    -0.019 A 
ATOM     48  C   LIG d   1       6.009  -1.151  -3.297  0.00  0.00    -0.046 A 
ATOM     49  H   LIG d   1       4.975  -2.975  -2.908  0.00  0.00     0.065 H 
ATOM     50  H   LIG d   1       6.247  -0.975  -2.257  0.00  0.00     0.063 H 
BRANCH  45  51
ATOM     51  O   LIG d   1       4.286  -3.601  -5.354  0.00  0.00    -0.495 OA
BRANCH  51  52
ATOM     52  C   LIG d   1       4.419  -4.049  -6.705  0.00  0.00     0.079 C 
ATOM     53  H   LIG d   1       5.324  -4.647  -6.802  0.00  0.00     0.066 H 
ATOM     54  H   LIG d   1       3.554  -4.653  -6.974  0.00  0.00     0.066 H 
ATOM     55  H   LIG d   1       4.481  -3.186  -7.368  0.00  0.00     0.066 H 
ENDBRANCH  51  52
ENDBRANCH  45  51
ENDBRANCH  38  41
ENDBRANCH   1  37
TORSDOF 9
ENDMDL
MODEL 4
REMARK VINA RESULT:      -6.3      2.137     10.726
REMARK  9 active torsions:
REMARK  status: ('A' for Active; 'I' for Inactive)
REMARK    1  A    between atoms: C_1  and  O_2 
REMARK    2  A    between atoms: O_2  and  C_3 
REMARK    3  A    between atoms: C_6  and  C_9 
REMARK       I    between atoms: C_9  and  N_11 
REMARK    4  A    between atoms: N_11  and  C_12 
REMARK    5  A    between atoms: C_19  and  C_24 
REMARK    6  A    between atoms: C_27  and  O_32 
REMARK    7  A    between atoms: C_28  and  O_30 
REMARK    8  A    between atoms: O_30  and  C_31 
REMARK    9  A    between atoms: O_32  and  C_33 
ROOT
ATOM      1  C   LIG d   1       9.757   2.221  -3.765  0.00  0.00     0.222 A 
ATOM      2  N   LIG d   1      10.844   2.119  -4.517  0.00  0.00    -0.222 NA
ATOM      3  C   LIG d   1      11.713   3.112  -4.587  0.00  0.00     0.043 A 
ATOM      4  C   LIG d   1      11.469   4.270  -3.839  0.00  0.00     0.057 A 
ATOM      5  C   LIG d   1      10.313   4.341  -3.055  0.00  0.00     0.057 A 
ATOM      6  N   LIG d   1       9.492   3.304  -3.046  0.00  0.00    -0.218 NA
ATOM      7  C   LIG d   1       9.989   5.559  -2.237  0.00  0.00    -0.002 C 
ATOM      8  C   LIG d   1      11.245   6.374  -1.942  0.00  0.00    -0.003 C 
ATOM      9  H   LIG d   1      11.912   5.796  -1.302  0.00  0.00     0.036 H 
ATOM     10  C   LIG d   1      11.961   6.707  -3.257  0.00  0.00     0.018 C 
ATOM     11  C   LIG d   1      12.412   5.397  -3.872  0.00  0.00     0.167 C 
ATOM     12  O   LIG d   1      13.511   5.283  -4.375  0.00  0.00    -0.292 OA
ATOM     13  H   LIG d   1      12.597   3.028  -5.203  0.00  0.00     0.084 H 
ATOM     14  H   LIG d   1       9.281   6.180  -2.786  0.00  0.00     0.033 H 
ATOM     15  H   LIG d   1       9.537   5.247  -1.296  0.00  0.00     0.033 H 
ATOM     16  H   LIG d   1      11.330   7.185  -3.868  0.00  0.00     0.035 H 
ATOM     17  H   LIG d   1      12.826   7.340  -3.059  0.00  0.00     0.035 H 
ENDROOT
BRANCH   8  18
ATOM     18  C   LIG d   1      10.861   7.652  -1.242  0.00  0.00    -0.040 A 
ATOM     19  C   LIG d   1      10.033   8.562  -1.874  0.00  0.00    -0.013 A 
ATOM     20  C   LIG d   1       9.674   9.735  -1.230  0.00  0.00     0.162 A 
ATOM     21  H   LIG d   1       9.662   8.357  -2.867  0.00  0.00     0.066 H 
ATOM     22  C   LIG d   1      10.156  10.000   0.049  0.00  0.00     0.162 A 
ATOM     23  C   LIG d   1      10.989   9.086   0.674  0.00  0.00    -0.016 A 
ATOM     24  C   LIG d   1      11.340   7.915   0.027  0.00  0.00    -0.055 A 
ATOM     25  H   LIG d   1      11.367   9.289   1.665  0.00  0.00     0.066 H 
ATOM     26  H   LIG d   1      11.990   7.204   0.516  0.00  0.00     0.062 H 
BRANCH  20  27
ATOM     27  O   LIG d   1       8.855  10.628  -1.847  0.00  0.00    -0.491 OA
BRANCH  27  28
ATOM     28  C   LIG d   1       9.355  11.256  -3.029  0.00  0.00     0.079 C 
ATOM     29  H   LIG d   1       9.029  12.296  -3.054  0.00  0.00     0.066 H 
ATOM     30  H   LIG d   1      10.444  11.215  -3.030  0.00  0.00     0.066 H 
ATOM     31  H   LIG d   1       8.972  10.735  -3.907  0.00  0.00     0.066 H 
ENDBRANCH  27  28
ENDBRANCH  20  27
BRANCH  22  32
ATOM     32  O   LIG d   1       9.811  11.152   0.683  0.00  0.00    -0.491 OA
BRANCH  32  33
ATOM     33  C   LIG d   1      10.785  12.198   0.705  0.00  0.00     0.079 C 
ATOM     34  H   LIG d   1      11.438  12.069   1.568  0.00  0.00     0.066 H 
ATOM     35  H   LIG d   1      11.378  12.160  -0.209  0.00  0.00     0.066 H 
ATOM     36  H   LIG d   1      10.281  13.162   0.771  0.00  0.00     0.066 H 
ENDBRANCH  32  33
ENDBRANCH  22  32
ENDBRANCH   8  18
BRANCH   1  37
ATOM     37  N   LIG d   1       8.870   1.160  -3.724  0.00  0.00    -0.251 N 
ATOM     38  C   LIG d   1       7.878   1.076  -4.631  0.00  0.00     0.250 C 
ATOM     39  O   LIG d   1       7.761   1.933  -5.485  0.00  0.00    -0.270 OA
ATOM     40  H   LIG d   1       8.965   0.476  -3.043  0.00  0.00     0.158 HD
BRANCH  38  41
ATOM     41  C   LIG d   1       6.933  -0.056  -4.588  0.00  0.00     0.037 A 
ATOM     42  C   LIG d   1       6.844  -0.851  -3.442  0.00  0.00    -0.046 A 
ATOM     43  C   LIG d   1       5.957  -1.904  -3.405  0.00  0.00    -0.019 A 
ATOM     44  H   LIG d   1       7.468  -0.639  -2.586  0.00  0.00     0.063 H 
ATOM     45  C   LIG d   1       5.159  -2.182  -4.508  0.00  0.00     0.120 A 
ATOM     46  H   LIG d   1       5.886  -2.517  -2.518  0.00  0.00     0.065 H 
ATOM     47  C   LIG d   1       5.243  -1.394  -5.649  0.00  0.00    -0.019 A 
ATOM     48  C   LIG d   1       6.124  -0.336  -5.693  0.00  0.00    -0.046 A 
ATOM     49  H   LIG d   1       4.618  -1.612  -6.502  0.00  0.00     0.065 H 
ATOM     50  H   LIG d   1       6.190   0.277  -6.580  0.00  0.00     0.063 H 
BRANCH  45  51
ATOM     51  O   LIG d   1       4.290  -3.225  -4.468  0.00  0.00    -0.495 OA
BRANCH  51  52
ATOM     52  C   LIG d   1       4.703  -4.439  -5.099  0.00  0.00     0.079 C 
ATOM     53  H   LIG d   1       4.588  -5.268  -4.402  0.00  0.00     0.066 H 
ATOM     54  H   LIG d   1       4.087  -4.618  -5.980  0.00  0.00     0.066 H 
ATOM     55  H   LIG d   1       5.748  -4.356  -5.396  0.00  0.00     0.066 H 
ENDBRANCH  51  52
ENDBRANCH  45  51
ENDBRANCH  38  41
ENDBRANCH   1  37
TORSDOF 9
ENDMDL
MODEL 5
REMARK VINA RESULT:      -6.3      3.489     10.822
REMARK  9 active torsions:
REMARK  status: ('A' for Active; 'I' for Inactive)
REMARK    1  A    between atoms: C_1  and  O_2 
REMARK    2  A    between atoms: O_2  and  C_3 
REMARK    3  A    between atoms: C_6  and  C_9 
REMARK       I    between atoms: C_9  and  N_11 
REMARK    4  A    between atoms: N_11  and  C_12 
REMARK    5  A    between atoms: C_19  and  C_24 
REMARK    6  A    between atoms: C_27  and  O_32 
REMARK    7  A    between atoms: C_28  and  O_30 
REMARK    8  A    between atoms: O_30  and  C_31 
REMARK    9  A    between atoms: O_32  and  C_33 
ROOT
ATOM      1  C   LIG d   1       8.058   1.130  -5.975  0.00  0.00     0.222 A 
ATOM      2  N   LIG d   1       9.078   0.283  -5.931  0.00  0.00    -0.222 NA
ATOM      3  C   LIG d   1      10.170   0.575  -5.247  0.00  0.00     0.043 A 
ATOM      4  C   LIG d   1      10.224   1.793  -4.559  0.00  0.00     0.057 A 
ATOM      5  C   LIG d   1       9.128   2.660  -4.626  0.00  0.00     0.057 A 
ATOM      6  N   LIG d   1       8.075   2.293  -5.338  0.00  0.00    -0.218 NA
ATOM      7  C   LIG d   1       9.127   3.985  -3.917  0.00  0.00    -0.002 C 
ATOM      8  C   LIG d   1      10.124   3.991  -2.761  0.00  0.00    -0.003 C 
ATOM      9  H   LIG d   1       9.799   3.284  -1.997  0.00  0.00     0.036 H 
ATOM     10  C   LIG d   1      11.510   3.587  -3.276  0.00  0.00     0.018 C 
ATOM     11  C   LIG d   1      11.412   2.159  -3.773  0.00  0.00     0.167 C 
ATOM     12  O   LIG d   1      12.280   1.347  -3.532  0.00  0.00    -0.292 OA
ATOM     13  H   LIG d   1      11.001  -0.115  -5.216  0.00  0.00     0.084 H 
ATOM     14  H   LIG d   1       9.397   4.769  -4.625  0.00  0.00     0.033 H 
ATOM     15  H   LIG d   1       8.128   4.182  -3.528  0.00  0.00     0.033 H 
ATOM     16  H   LIG d   1      11.783   4.201  -4.018  0.00  0.00     0.035 H 
ATOM     17  H   LIG d   1      12.239   3.648  -2.468  0.00  0.00     0.035 H 
ENDROOT
BRANCH   8  18
ATOM     18  C   LIG d   1      10.193   5.374  -2.166  0.00  0.00    -0.040 A 
ATOM     19  C   LIG d   1      10.616   5.543  -0.860  0.00  0.00    -0.013 A 
ATOM     20  C   LIG d   1      10.685   6.814  -0.313  0.00  0.00     0.162 A 
ATOM     21  H   LIG d   1      10.896   4.684  -0.267  0.00  0.00     0.066 H 
ATOM     22  C   LIG d   1      10.319   7.918  -1.077  0.00  0.00     0.162 A 
ATOM     23  C   LIG d   1       9.892   7.741  -2.383  0.00  0.00    -0.016 A 
ATOM     24  C   LIG d   1       9.829   6.471  -2.924  0.00  0.00    -0.055 A 
ATOM     25  H   LIG d   1       9.606   8.596  -2.979  0.00  0.00     0.066 H 
ATOM     26  H   LIG d   1       9.495   6.334  -3.943  0.00  0.00     0.062 H 
BRANCH  20  27
ATOM     27  O   LIG d   1      11.106   6.982   0.969  0.00  0.00    -0.491 OA
BRANCH  27  28
ATOM     28  C   LIG d   1      10.971   5.864   1.848  0.00  0.00     0.079 C 
ATOM     29  H   LIG d   1      11.529   6.053   2.765  0.00  0.00     0.066 H 
ATOM     30  H   LIG d   1       9.917   5.715   2.087  0.00  0.00     0.066 H 
ATOM     31  H   LIG d   1      11.362   4.970   1.363  0.00  0.00     0.066 H 
ENDBRANCH  27  28
ENDBRANCH  20  27
BRANCH  22  32
ATOM     32  O   LIG d   1      10.381   9.167  -0.543  0.00  0.00    -0.491 OA
BRANCH  32  33
ATOM     33  C   LIG d   1       9.168   9.923  -0.519  0.00  0.00     0.079 C 
ATOM     34  H   LIG d   1       8.909  10.164   0.512  0.00  0.00     0.066 H 
ATOM     35  H   LIG d   1       9.302  10.844  -1.086  0.00  0.00     0.066 H 
ATOM     36  H   LIG d   1       8.366   9.336  -0.967  0.00  0.00     0.066 H 
ENDBRANCH  32  33
ENDBRANCH  22  32
ENDBRANCH   8  18
BRANCH   1  37
ATOM     37  N   LIG d   1       6.935   0.787  -6.706  0.00  0.00    -0.251 N 
ATOM     38  C   LIG d   1       6.791   1.233  -7.969  0.00  0.00     0.250 C 
ATOM     39  O   LIG d   1       7.648   1.938  -8.466  0.00  0.00    -0.270 OA
ATOM     40  H   LIG d   1       6.252   0.224  -6.310  0.00  0.00     0.158 HD
BRANCH  38  41
ATOM     41  C   LIG d   1       5.595   0.867  -8.750  0.00  0.00     0.037 A 
ATOM     42  C   LIG d   1       5.104  -0.442  -8.706  0.00  0.00    -0.046 A 
ATOM     43  C   LIG d   1       3.983  -0.778  -9.433  0.00  0.00    -0.019 A 
ATOM     44  H   LIG d   1       5.600  -1.186  -8.102  0.00  0.00     0.063 H 
ATOM     45  C   LIG d   1       3.348   0.178 -10.216  0.00  0.00     0.120 A 
ATOM     46  H   LIG d   1       3.601  -1.787  -9.397  0.00  0.00     0.065 H 
ATOM     47  C   LIG d   1       3.832   1.480 -10.262  0.00  0.00    -0.019 A 
ATOM     48  C   LIG d   1       4.948   1.826  -9.534  0.00  0.00    -0.046 A 
ATOM     49  H   LIG d   1       3.332   2.220 -10.868  0.00  0.00     0.065 H 
ATOM     50  H   LIG d   1       5.325   2.838  -9.570  0.00  0.00     0.063 H 
BRANCH  45  51
ATOM     51  O   LIG d   1       2.246  -0.160 -10.935  0.00  0.00    -0.495 OA
BRANCH  51  52
ATOM     52  C   LIG d   1       2.441  -1.034 -12.049  0.00  0.00     0.079 C 
ATOM     53  H   LIG d   1       2.854  -1.980 -11.701  0.00  0.00     0.066 H 
ATOM     54  H   LIG d   1       1.485  -1.214 -12.540  0.00  0.00     0.066 H 
ATOM     55  H   LIG d   1       3.131  -0.573 -12.755  0.00  0.00     0.066 H 
ENDBRANCH  51  52
ENDBRANCH  45  51
ENDBRANCH  38  41
ENDBRANCH   1  37
TORSDOF 9
ENDMDL
MODEL 6
REMARK VINA RESULT:      -6.3      3.840     10.550
REMARK  9 active torsions:
REMARK  status: ('A' for Active; 'I' for Inactive)
REMARK    1  A    between atoms: C_1  and  O_2 
REMARK    2  A    between atoms: O_2  and  C_3 
REMARK    3  A    between atoms: C_6  and  C_9 
REMARK       I    between atoms: C_9  and  N_11 
REMARK    4  A    between atoms: N_11  and  C_12 
REMARK    5  A    between atoms: C_19  and  C_24 
REMARK    6  A    between atoms: C_27  and  O_32 
REMARK    7  A    between atoms: C_28  and  O_30 
REMARK    8  A    between atoms: O_30  and  C_31 
REMARK    9  A    between atoms: O_32  and  C_33 
ROOT
ATOM      1  C   LIG d   1       8.878   2.129  -4.194  0.00  0.00     0.222 A 
ATOM      2  N   LIG d   1       9.382   2.501  -3.025  0.00  0.00    -0.222 NA
ATOM      3  C   LIG d   1      10.007   3.658  -2.895  0.00  0.00     0.043 A 
ATOM      4  C   LIG d   1      10.116   4.489  -4.017  0.00  0.00     0.057 A 
ATOM      5  C   LIG d   1       9.571   4.065  -5.233  0.00  0.00     0.057 A 
ATOM      6  N   LIG d   1       8.965   2.889  -5.277  0.00  0.00    -0.218 NA
ATOM      7  C   LIG d   1       9.663   4.907  -6.474  0.00  0.00    -0.002 C 
ATOM      8  C   LIG d   1       9.879   6.377  -6.127  0.00  0.00    -0.003 C 
ATOM      9  H   LIG d   1       8.998   6.762  -5.613  0.00  0.00     0.036 H 
ATOM     10  C   LIG d   1      11.105   6.515  -5.217  0.00  0.00     0.018 C 
ATOM     11  C   LIG d   1      10.792   5.792  -3.922  0.00  0.00     0.167 C 
ATOM     12  O   LIG d   1      11.089   6.269  -2.847  0.00  0.00    -0.292 OA
ATOM     13  H   LIG d   1      10.420   3.958  -1.943  0.00  0.00     0.084 H 
ATOM     14  H   LIG d   1      10.498   4.557  -7.082  0.00  0.00     0.033 H 
ATOM     15  H   LIG d   1       8.739   4.806  -7.044  0.00  0.00     0.033 H 
ATOM     16  H   LIG d   1      11.901   6.108  -5.665  0.00  0.00     0.035 H 
ATOM     17  H   LIG d   1      11.300   7.567  -5.014  0.00  0.00     0.035 H 
ENDROOT
BRANCH   8  18
ATOM     18  C   LIG d   1      10.103   7.163  -7.394  0.00  0.00    -0.040 A 
ATOM     19  C   LIG d   1      10.298   8.531  -7.330  0.00  0.00    -0.013 A 
ATOM     20  C   LIG d   1      10.510   9.255  -8.493  0.00  0.00     0.162 A 
ATOM     21  H   LIG d   1      10.289   9.035  -6.375  0.00  0.00     0.066 H 
ATOM     22  C   LIG d   1      10.516   8.604  -9.723  0.00  0.00     0.162 A 
ATOM     23  C   LIG d   1      10.316   7.234  -9.779  0.00  0.00    -0.016 A 
ATOM     24  C   LIG d   1      10.109   6.517  -8.615  0.00  0.00    -0.055 A 
ATOM     25  H   LIG d   1      10.319   6.726 -10.733  0.00  0.00     0.066 H 
ATOM     26  H   LIG d   1       9.952   5.449  -8.660  0.00  0.00     0.062 H 
BRANCH  20  27
ATOM     27  O   LIG d   1      10.707  10.598  -8.433  0.00  0.00    -0.491 OA
BRANCH  27  28
ATOM     28  C   LIG d   1      11.926  11.049  -7.839  0.00  0.00     0.079 C 
ATOM     29  H   LIG d   1      12.244  10.339  -7.076  0.00  0.00     0.066 H 
ATOM     30  H   LIG d   1      12.696  11.128  -8.607  0.00  0.00     0.066 H 
ATOM     31  H   LIG d   1      11.769  12.027  -7.383  0.00  0.00     0.066 H 
ENDBRANCH  27  28
ENDBRANCH  20  27
BRANCH  22  32
ATOM     32  O   LIG d   1      10.719   9.310 -10.867  0.00  0.00    -0.491 OA
BRANCH  32  33
ATOM     33  C   LIG d   1      11.749   8.845 -11.743  0.00  0.00     0.079 C 
ATOM     34  H   LIG d   1      11.417   7.938 -12.246  0.00  0.00     0.066 H 
ATOM     35  H   LIG d   1      11.968   9.613 -12.485  0.00  0.00     0.066 H 
ATOM     36  H   LIG d   1      12.648   8.633 -11.164  0.00  0.00     0.066 H 
ENDBRANCH  32  33
ENDBRANCH  22  32
ENDBRANCH   8  18
BRANCH   1  37
ATOM     37  N   LIG d   1       8.235   0.908  -4.286  0.00  0.00    -0.251 N 
ATOM     38  C   LIG d   1       6.968   0.779  -3.846  0.00  0.00     0.250 C 
ATOM     39  O   LIG d   1       6.390   1.736  -3.368  0.00  0.00    -0.270 OA
ATOM     40  H   LIG d   1       8.695   0.145  -4.669  0.00  0.00     0.158 HD
BRANCH  38  41
ATOM     41  C   LIG d   1       6.281  -0.522  -3.945  0.00  0.00     0.037 A 
ATOM     42  C   LIG d   1       6.594  -1.402  -4.985  0.00  0.00    -0.046 A 
ATOM     43  C   LIG d   1       5.953  -2.618  -5.071  0.00  0.00    -0.019 A 
ATOM     44  H   LIG d   1       7.338  -1.130  -5.719  0.00  0.00     0.063 H 
ATOM     45  C   LIG d   1       4.991  -2.967  -4.131  0.00  0.00     0.120 A 
ATOM     46  H   LIG d   1       6.197  -3.300  -5.872  0.00  0.00     0.065 H 
ATOM     47  C   LIG d   1       4.677  -2.095  -3.094  0.00  0.00    -0.019 A 
ATOM     48  C   LIG d   1       5.316  -0.880  -2.999  0.00  0.00    -0.046 A 
ATOM     49  H   LIG d   1       3.931  -2.372  -2.364  0.00  0.00     0.065 H 
ATOM     50  H   LIG d   1       5.072  -0.202  -2.193  0.00  0.00     0.063 H 
BRANCH  45  51
ATOM     51  O   LIG d   1       4.358  -4.164  -4.223  0.00  0.00    -0.495 OA
BRANCH  51  52
ATOM     52  C   LIG d   1       4.715  -5.005  -5.322  0.00  0.00     0.079 C 
ATOM     53  H   LIG d   1       4.632  -4.442  -6.251  0.00  0.00     0.066 H 
ATOM     54  H   LIG d   1       5.741  -5.350  -5.198  0.00  0.00     0.066 H 
ATOM     55  H   LIG d   1       4.044  -5.863  -5.356  0.00  0.00     0.066 H 
ENDBRANCH  51  52
ENDBRANCH  45  51
ENDBRANCH  38  41
ENDBRANCH   1  37
TORSDOF 9
ENDMDL
MODEL 7
REMARK VINA RESULT:      -6.2      7.990     11.081
REMARK  9 active torsions:
REMARK  status: ('A' for Active; 'I' for Inactive)
REMARK    1  A    between atoms: C_1  and  O_2 
REMARK    2  A    between atoms: O_2  and  C_3 
REMARK    3  A    between atoms: C_6  and  C_9 
REMARK       I    between atoms: C_9  and  N_11 
REMARK    4  A    between atoms: N_11  and  C_12 
REMARK    5  A    between atoms: C_19  and  C_24 
REMARK    6  A    between atoms: C_27  and  O_32 
REMARK    7  A    between atoms: C_28  and  O_30 
REMARK    8  A    between atoms: O_30  and  C_31 
REMARK    9  A    between atoms: O_32  and  C_33 
ROOT
ATOM      1  C   LIG d   1       9.751  -4.287  -2.919  0.00  0.00     0.222 A 
ATOM      2  N   LIG d   1      10.669  -4.407  -3.868  0.00  0.00    -0.222 NA
ATOM      3  C   LIG d   1      11.533  -5.407  -3.848  0.00  0.00     0.043 A 
ATOM      4  C   LIG d   1      11.449  -6.345  -2.811  0.00  0.00     0.057 A 
ATOM      5  C   LIG d   1      10.466  -6.186  -1.830  0.00  0.00     0.057 A 
ATOM      6  N   LIG d   1       9.644  -5.153  -1.921  0.00  0.00    -0.218 NA
ATOM      7  C   LIG d   1      10.330  -7.152  -0.687  0.00  0.00    -0.002 C 
ATOM      8  C   LIG d   1      10.951  -8.503  -1.032  0.00  0.00    -0.003 C 
ATOM      9  H   LIG d   1      10.385  -8.968  -1.839  0.00  0.00     0.036 H 
ATOM     10  C   LIG d   1      12.405  -8.300  -1.477  0.00  0.00     0.018 C 
ATOM     11  C   LIG d   1      12.379  -7.482  -2.752  0.00  0.00     0.167 C 
ATOM     12  O   LIG d   1      13.099  -7.755  -3.690  0.00  0.00    -0.292 OA
ATOM     13  H   LIG d   1      12.283  -5.502  -4.620  0.00  0.00     0.084 H 
ATOM     14  H   LIG d   1      10.831  -6.742   0.189  0.00  0.00     0.033 H 
ATOM     15  H   LIG d   1       9.273  -7.293  -0.462  0.00  0.00     0.033 H 
ATOM     16  H   LIG d   1      12.910  -7.820  -0.759  0.00  0.00     0.035 H 
ATOM     17  H   LIG d   1      12.873  -9.266  -1.666  0.00  0.00     0.035 H 
ENDROOT
BRANCH   8  18
ATOM     18  C   LIG d   1      10.918  -9.395   0.183  0.00  0.00    -0.040 A 
ATOM     19  C   LIG d   1      11.273  -8.888   1.420  0.00  0.00    -0.013 A 
ATOM     20  C   LIG d   1      11.238  -9.705   2.539  0.00  0.00     0.162 A 
ATOM     21  H   LIG d   1      11.575  -7.856   1.515  0.00  0.00     0.066 H 
ATOM     22  C   LIG d   1      10.854 -11.037   2.413  0.00  0.00     0.162 A 
ATOM     23  C   LIG d   1      10.503 -11.539   1.170  0.00  0.00    -0.016 A 
ATOM     24  C   LIG d   1      10.537 -10.717   0.058  0.00  0.00    -0.055 A 
ATOM     25  H   LIG d   1      10.206 -12.572   1.068  0.00  0.00     0.066 H 
ATOM     26  H   LIG d   1      10.263 -11.110  -0.911  0.00  0.00     0.062 H 
BRANCH  20  27
ATOM     27  O   LIG d   1      11.582  -9.208   3.756  0.00  0.00    -0.491 OA
BRANCH  27  28
ATOM     28  C   LIG d   1      12.764  -8.408   3.820  0.00  0.00     0.079 C 
ATOM     29  H   LIG d   1      12.998  -8.187   4.861  0.00  0.00     0.066 H 
ATOM     30  H   LIG d   1      13.594  -8.950   3.367  0.00  0.00     0.066 H 
ATOM     31  H   LIG d   1      12.601  -7.475   3.280  0.00  0.00     0.066 H 
ENDBRANCH  27  28
ENDBRANCH  20  27
BRANCH  22  32
ATOM     32  O   LIG d   1      10.822 -11.844   3.507  0.00  0.00    -0.491 OA
BRANCH  32  33
ATOM     33  C   LIG d   1      11.949 -12.698   3.716  0.00  0.00     0.079 C 
ATOM     34  H   LIG d   1      12.864 -12.159   3.473  0.00  0.00     0.066 H 
ATOM     35  H   LIG d   1      11.978 -13.012   4.760  0.00  0.00     0.066 H 
ATOM     36  H   LIG d   1      11.863 -13.576   3.075  0.00  0.00     0.066 H 
ENDBRANCH  32  33
ENDBRANCH  22  32
ENDBRANCH   8  18
BRANCH   1  37
ATOM     37  N   LIG d   1       8.869  -3.222  -2.975  0.00  0.00    -0.251 N 
ATOM     38  C   LIG d   1       7.798  -3.276  -3.792  0.00  0.00     0.250 C 
ATOM     39  O   LIG d   1       7.608  -4.260  -4.480  0.00  0.00    -0.270 OA
ATOM     40  H   LIG d   1       9.020  -2.438  -2.425  0.00  0.00     0.158 HD
BRANCH  38  41
ATOM     41  C   LIG d   1       6.858  -2.142  -3.851  0.00  0.00     0.037 A 
ATOM     42  C   LIG d   1       7.342  -0.830  -3.868  0.00  0.00    -0.046 A 
ATOM     43  C   LIG d   1       6.460   0.226  -3.929  0.00  0.00    -0.019 A 
ATOM     44  H   LIG d   1       8.405  -0.646  -3.837  0.00  0.00     0.063 H 
ATOM     45  C   LIG d   1       5.091  -0.011  -3.962  0.00  0.00     0.120 A 
ATOM     46  H   LIG d   1       6.833   1.239  -3.946  0.00  0.00     0.065 H 
ATOM     47  C   LIG d   1       4.605  -1.313  -3.947  0.00  0.00    -0.019 A 
ATOM     48  C   LIG d   1       5.480  -2.374  -3.891  0.00  0.00    -0.046 A 
ATOM     49  H   LIG d   1       3.541  -1.492  -3.977  0.00  0.00     0.065 H 
ATOM     50  H   LIG d   1       5.102  -3.387  -3.879  0.00  0.00     0.063 H 
BRANCH  45  51
ATOM     51  O   LIG d   1       4.225   1.034  -4.017  0.00  0.00    -0.495 OA
BRANCH  51  52
ATOM     52  C   LIG d   1       3.689   1.498  -2.776  0.00  0.00     0.079 C 
ATOM     53  H   LIG d   1       4.504   1.720  -2.088  0.00  0.00     0.066 H 
ATOM     54  H   LIG d   1       3.104   2.401  -2.949  0.00  0.00     0.066 H 
ATOM     55  H   LIG d   1       3.050   0.727  -2.345  0.00  0.00     0.066 H 
ENDBRANCH  51  52
ENDBRANCH  45  51
ENDBRANCH  38  41
ENDBRANCH   1  37
TORSDOF 9
ENDMDL
MODEL 8
REMARK VINA RESULT:      -6.1      7.519     11.109
REMARK  9 active torsions:
REMARK  status: ('A' for Active; 'I' for Inactive)
REMARK    1  A    between atoms: C_1  and  O_2 
REMARK    2  A    between atoms: O_2  and  C_3 
REMARK    3  A    between atoms: C_6  and  C_9 
REMARK       I    between atoms: C_9  and  N_11 
REMARK    4  A    between atoms: N_11  and  C_12 
REMARK    5  A    between atoms: C_19  and  C_24 
REMARK    6  A    between atoms: C_27  and  O_32 
REMARK    7  A    between atoms: C_28  and  O_30 
REMARK    8  A    between atoms: O_30  and  C_31 
REMARK    9  A    between atoms: O_32  and  C_33 
ROOT
ATOM      1  C   LIG d   1      10.700  -6.540  -2.417  0.00  0.00     0.222 A 
ATOM      2  N   LIG d   1      10.601  -7.209  -3.557  0.00  0.00    -0.222 NA
ATOM      3  C   LIG d   1       9.834  -6.765  -4.537  0.00  0.00     0.043 A 
ATOM      4  C   LIG d   1       9.137  -5.565  -4.351  0.00  0.00     0.057 A 
ATOM      5  C   LIG d   1       9.267  -4.885  -3.135  0.00  0.00     0.057 A 
ATOM      6  N   LIG d   1      10.053  -5.402  -2.204  0.00  0.00    -0.218 NA
ATOM      7  C   LIG d   1       8.539  -3.598  -2.870  0.00  0.00    -0.002 C 
ATOM      8  C   LIG d   1       8.155  -2.904  -4.174  0.00  0.00    -0.003 C 
ATOM      9  H   LIG d   1       9.058  -2.592  -4.700  0.00  0.00     0.036 H 
ATOM     10  C   LIG d   1       7.358  -3.874  -5.056  0.00  0.00     0.018 C 
ATOM     11  C   LIG d   1       8.280  -5.022  -5.415  0.00  0.00     0.167 C 
ATOM     12  O   LIG d   1       8.310  -5.477  -6.540  0.00  0.00    -0.292 OA
ATOM     13  H   LIG d   1       9.752  -7.313  -5.464  0.00  0.00     0.084 H 
ATOM     14  H   LIG d   1       7.635  -3.810  -2.299  0.00  0.00     0.033 H 
ATOM     15  H   LIG d   1       9.182  -2.936  -2.290  0.00  0.00     0.033 H 
ATOM     16  H   LIG d   1       6.561  -4.206  -4.551  0.00  0.00     0.035 H 
ATOM     17  H   LIG d   1       7.029  -3.367  -5.962  0.00  0.00     0.035 H 
ENDROOT
BRANCH   8  18
ATOM     18  C   LIG d   1       7.310  -1.694  -3.868  0.00  0.00    -0.040 A 
ATOM     19  C   LIG d   1       7.748  -0.436  -4.239  0.00  0.00    -0.013 A 
ATOM     20  C   LIG d   1       6.970   0.677  -3.964  0.00  0.00     0.162 A 
ATOM     21  H   LIG d   1       8.694  -0.320  -4.746  0.00  0.00     0.066 H 
ATOM     22  C   LIG d   1       5.753   0.527  -3.305  0.00  0.00     0.162 A 
ATOM     23  C   LIG d   1       5.322  -0.737  -2.933  0.00  0.00    -0.016 A 
ATOM     24  C   LIG d   1       6.101  -1.844  -3.215  0.00  0.00    -0.055 A 
ATOM     25  H   LIG d   1       4.379  -0.857  -2.421  0.00  0.00     0.066 H 
ATOM     26  H   LIG d   1       5.765  -2.828  -2.924  0.00  0.00     0.062 H 
BRANCH  20  27
ATOM     27  O   LIG d   1       7.396   1.915  -4.331  0.00  0.00    -0.491 OA
BRANCH  27  28
ATOM     28  C   LIG d   1       8.642   2.358  -3.791  0.00  0.00     0.079 C 
ATOM     29  H   LIG d   1       8.521   3.354  -3.366  0.00  0.00     0.066 H 
ATOM     30  H   LIG d   1       8.968   1.667  -3.013  0.00  0.00     0.066 H 
ATOM     31  H   LIG d   1       9.391   2.391  -4.583  0.00  0.00     0.066 H 
ENDBRANCH  27  28
ENDBRANCH  20  27
BRANCH  22  32
ATOM     32  O   LIG d   1       4.988   1.616  -3.029  0.00  0.00    -0.491 OA
BRANCH  32  33
ATOM     33  C   LIG d   1       3.696   1.376  -2.465  0.00  0.00     0.079 C 
ATOM     34  H   LIG d   1       3.197   0.585  -3.023  0.00  0.00     0.066 H 
ATOM     35  H   LIG d   1       3.806   1.073  -1.423  0.00  0.00     0.066 H 
ATOM     36  H   LIG d   1       3.102   2.289  -2.517  0.00  0.00     0.066 H 
ENDBRANCH  32  33
ENDBRANCH  22  32
ENDBRANCH   8  18
BRANCH   1  37
ATOM     37  N   LIG d   1      11.511  -7.042  -1.415  0.00  0.00    -0.251 N 
ATOM     38  C   LIG d   1      11.104  -8.099  -0.685  0.00  0.00     0.250 C 
ATOM     39  O   LIG d   1      10.023  -8.611  -0.907  0.00  0.00    -0.270 OA
ATOM     40  H   LIG d   1      12.373  -6.634  -1.239  0.00  0.00     0.158 HD
BRANCH  38  41
ATOM     41  C   LIG d   1      11.969  -8.636   0.382  0.00  0.00     0.037 A 
ATOM     42  C   LIG d   1      13.299  -8.965   0.107  0.00  0.00    -0.046 A 
ATOM     43  C   LIG d   1      14.104  -9.461   1.108  0.00  0.00    -0.019 A 
ATOM     44  H   LIG d   1      13.696  -8.827  -0.888  0.00  0.00     0.063 H 
ATOM     45  C   LIG d   1      13.593  -9.646   2.387  0.00  0.00     0.120 A 
ATOM     46  H   LIG d   1      15.133  -9.712   0.897  0.00  0.00     0.065 H 
ATOM     47  C   LIG d   1      12.270  -9.319   2.665  0.00  0.00    -0.019 A 
ATOM     48  C   LIG d   1      11.460  -8.818   1.672  0.00  0.00    -0.046 A 
ATOM     49  H   LIG d   1      11.879  -9.460   3.661  0.00  0.00     0.065 H 
ATOM     50  H   LIG d   1      10.432  -8.564   1.888  0.00  0.00     0.063 H 
BRANCH  45  51
ATOM     51  O   LIG d   1      14.389 -10.140   3.369  0.00  0.00    -0.495 OA
BRANCH  51  52
ATOM     52  C   LIG d   1      13.924 -10.002   4.713  0.00  0.00     0.079 C 
ATOM     53  H   LIG d   1      12.837 -10.067   4.730  0.00  0.00     0.066 H 
ATOM     54  H   LIG d   1      14.346 -10.797   5.327  0.00  0.00     0.066 H 
ATOM     55  H   LIG d   1      14.236  -9.034   5.107  0.00  0.00     0.066 H 
ENDBRANCH  51  52
ENDBRANCH  45  51
ENDBRANCH  38  41
ENDBRANCH   1  37
TORSDOF 9
ENDMDL
MODEL 9
REMARK VINA RESULT:      -6.0      5.891     10.442
REMARK  9 active torsions:
REMARK  status: ('A' for Active; 'I' for Inactive)
REMARK    1  A    between atoms: C_1  and  O_2 
REMARK    2  A    between atoms: O_2  and  C_3 
REMARK    3  A    between atoms: C_6  and  C_9 
REMARK       I    between atoms: C_9  and  N_11 
REMARK    4  A    between atoms: N_11  and  C_12 
REMARK    5  A    between atoms: C_19  and  C_24 
REMARK    6  A    between atoms: C_27  and  O_32 
REMARK    7  A    between atoms: C_28  and  O_30 
REMARK    8  A    between atoms: O_30  and  C_31 
REMARK    9  A    between atoms: O_32  and  C_33 
ROOT
ATOM      1  C   LIG d   1       9.563   6.287  -9.360  0.00  0.00     0.222 A 
ATOM      2  N   LIG d   1       9.413   5.015  -9.706  0.00  0.00    -0.222 NA
ATOM      3  C   LIG d   1       9.436   4.060  -8.794  0.00  0.00     0.043 A 
ATOM      4  C   LIG d   1       9.611   4.419  -7.452  0.00  0.00     0.057 A 
ATOM      5  C   LIG d   1       9.763   5.770  -7.125  0.00  0.00     0.057 A 
ATOM      6  N   LIG d   1       9.732   6.663  -8.100  0.00  0.00    -0.218 NA
ATOM      7  C   LIG d   1       9.963   6.220  -5.705  0.00  0.00    -0.002 C 
ATOM      8  C   LIG d   1       9.437   5.180  -4.719  0.00  0.00    -0.003 C 
ATOM      9  H   LIG d   1       8.355   5.097  -4.820  0.00  0.00     0.036 H 
ATOM     10  C   LIG d   1      10.084   3.821  -5.015  0.00  0.00     0.018 C 
ATOM     11  C   LIG d   1       9.632   3.394  -6.398  0.00  0.00     0.167 C 
ATOM     12  O   LIG d   1       9.300   2.250  -6.627  0.00  0.00    -0.292 OA
ATOM     13  H   LIG d   1       9.317   3.024  -9.077  0.00  0.00     0.084 H 
ATOM     14  H   LIG d   1      11.026   6.376  -5.526  0.00  0.00     0.033 H 
ATOM     15  H   LIG d   1       9.432   7.159  -5.550  0.00  0.00     0.033 H 
ATOM     16  H   LIG d   1      11.079   3.910  -4.981  0.00  0.00     0.035 H 
ATOM     17  H   LIG d   1       9.759   3.087  -4.278  0.00  0.00     0.035 H 
ENDROOT
BRANCH   8  18
ATOM     18  C   LIG d   1       9.779   5.603  -3.314  0.00  0.00    -0.040 A 
ATOM     19  C   LIG d   1       9.157   6.704  -2.755  0.00  0.00    -0.013 A 
ATOM     20  C   LIG d   1       9.466   7.091  -1.461  0.00  0.00     0.162 A 
ATOM     21  H   LIG d   1       8.428   7.261  -3.325  0.00  0.00     0.066 H 
ATOM     22  C   LIG d   1      10.410   6.376  -0.730  0.00  0.00     0.162 A 
ATOM     23  C   LIG d   1      11.033   5.276  -1.298  0.00  0.00    -0.016 A 
ATOM     24  C   LIG d   1      10.717   4.892  -2.588  0.00  0.00    -0.055 A 
ATOM     25  H   LIG d   1      11.767   4.719  -0.734  0.00  0.00     0.066 H 
ATOM     26  H   LIG d   1      11.203   4.035  -3.030  0.00  0.00     0.062 H 
BRANCH  20  27
ATOM     27  O   LIG d   1       8.853   8.171  -0.907  0.00  0.00    -0.491 OA
BRANCH  27  28
ATOM     28  C   LIG d   1       9.363   9.458  -1.259  0.00  0.00     0.079 C 
ATOM     29  H   LIG d   1       9.738   9.434  -2.282  0.00  0.00     0.066 H 
ATOM     30  H   LIG d   1       8.566  10.199  -1.181  0.00  0.00     0.066 H 
ATOM     31  H   LIG d   1      10.174   9.726  -0.582  0.00  0.00     0.066 H 
ENDBRANCH  27  28
ENDBRANCH  20  27
BRANCH  22  32
ATOM     32  O   LIG d   1      10.721   6.755   0.539  0.00  0.00    -0.491 OA
BRANCH  32  33
ATOM     33  C   LIG d   1      11.034   5.715   1.468  0.00  0.00     0.079 C 
ATOM     34  H   LIG d   1      12.016   5.304   1.237  0.00  0.00     0.066 H 
ATOM     35  H   LIG d   1      11.037   6.121   2.480  0.00  0.00     0.066 H 
ATOM     36  H   LIG d   1      10.284   4.927   1.396  0.00  0.00     0.066 H 
ENDBRANCH  32  33
ENDBRANCH  22  32
ENDBRANCH   8  18
BRANCH   1  37
ATOM     37  N   LIG d   1       9.536   7.255 -10.348  0.00  0.00    -0.251 N 
ATOM     38  C   LIG d   1      10.662   7.565 -11.019  0.00  0.00     0.250 C 
ATOM     39  O   LIG d   1      11.703   6.994 -10.756  0.00  0.00    -0.270 OA
ATOM     40  H   LIG d   1       8.705   7.710 -10.558  0.00  0.00     0.158 HD
BRANCH  38  41
ATOM     41  C   LIG d   1      10.634   8.597 -12.072  0.00  0.00     0.037 A 
ATOM     42  C   LIG d   1      11.644   9.563 -12.134  0.00  0.00    -0.046 A 
ATOM     43  C   LIG d   1      11.615  10.521 -13.122  0.00  0.00    -0.019 A 
ATOM     44  H   LIG d   1      12.445   9.555 -11.410  0.00  0.00     0.063 H 
ATOM     45  C   LIG d   1      10.581  10.536 -14.050  0.00  0.00     0.120 A 
ATOM     46  H   LIG d   1      12.397  11.265 -13.173  0.00  0.00     0.065 H 
ATOM     47  C   LIG d   1       9.576   9.577 -13.993  0.00  0.00    -0.019 A 
ATOM     48  C   LIG d   1       9.599   8.612 -13.012  0.00  0.00    -0.046 A 
ATOM     49  H   LIG d   1       8.777   9.590 -14.719  0.00  0.00     0.065 H 
ATOM     50  H   LIG d   1       8.818   7.867 -12.967  0.00  0.00     0.063 H 
BRANCH  45  51
ATOM     51  O   LIG d   1      10.555  11.486 -15.019  0.00  0.00    -0.495 OA
BRANCH  51  52
ATOM     52  C   LIG d   1      11.418  12.613 -14.847  0.00  0.00     0.079 C 
ATOM     53  H   LIG d   1      12.455  12.295 -14.949  0.00  0.00     0.066 H 
ATOM     54  H   LIG d   1      11.192  13.363 -15.605  0.00  0.00     0.066 H 
ATOM     55  H   LIG d   1      11.264  13.039 -13.856  0.00  0.00     0.066 H 
ENDBRANCH  51  52
ENDBRANCH  45  51
ENDBRANCH  38  41
ENDBRANCH   1  37
TORSDOF 9
ENDMDL
MODEL 10
REMARK VINA RESULT:      -6.0      2.015      2.615
REMARK  9 active torsions:
REMARK  status: ('A' for Active; 'I' for Inactive)
REMARK    1  A    between atoms: C_1  and  O_2 
REMARK    2  A    between atoms: O_2  and  C_3 
REMARK    3  A    between atoms: C_6  and  C_9 
REMARK       I    between atoms: C_9  and  N_11 
REMARK    4  A    between atoms: N_11  and  C_12 
REMARK    5  A    between atoms: C_19  and  C_24 
REMARK    6  A    between atoms: C_27  and  O_32 
REMARK    7  A    between atoms: C_28  and  O_30 
REMARK    8  A    between atoms: O_30  and  C_31 
REMARK    9  A    between atoms: O_32  and  C_33 
ROOT
ATOM      1  C   LIG d   1      10.991   5.616  -2.999  0.00  0.00     0.222 A 
ATOM      2  N   LIG d   1      12.167   5.239  -3.484  0.00  0.00    -0.222 NA
ATOM      3  C   LIG d   1      12.314   4.057  -4.055  0.00  0.00     0.043 A 
ATOM      4  C   LIG d   1      11.199   3.215  -4.150  0.00  0.00     0.057 A 
ATOM      5  C   LIG d   1       9.975   3.647  -3.629  0.00  0.00     0.057 A 
ATOM      6  N   LIG d   1       9.915   4.844  -3.068  0.00  0.00    -0.218 NA
ATOM      7  C   LIG d   1       8.745   2.787  -3.691  0.00  0.00    -0.002 C 
ATOM      8  C   LIG d   1       8.855   1.748  -4.803  0.00  0.00    -0.003 C 
ATOM      9  H   LIG d   1       8.874   2.250  -5.770  0.00  0.00     0.036 H 
ATOM     10  C   LIG d   1      10.145   0.938  -4.622  0.00  0.00     0.018 C 
ATOM     11  C   LIG d   1      11.309   1.895  -4.788  0.00  0.00     0.167 C 
ATOM     12  O   LIG d   1      12.294   1.583  -5.423  0.00  0.00    -0.292 OA
ATOM     13  H   LIG d   1      13.273   3.750  -4.447  0.00  0.00     0.084 H 
ATOM     14  H   LIG d   1       8.617   2.276  -2.736  0.00  0.00     0.033 H 
ATOM     15  H   LIG d   1       7.876   3.419  -3.878  0.00  0.00     0.033 H 
ATOM     16  H   LIG d   1      10.155   0.525  -3.711  0.00  0.00     0.035 H 
ATOM     17  H   LIG d   1      10.200   0.154  -5.378  0.00  0.00     0.035 H 
ENDROOT
BRANCH   8  18
ATOM     18  C   LIG d   1       7.668   0.821  -4.743  0.00  0.00    -0.040 A 
ATOM     19  C   LIG d   1       6.961   0.682  -3.563  0.00  0.00    -0.013 A 
ATOM     20  C   LIG d   1       5.866  -0.166  -3.507  0.00  0.00     0.162 A 
ATOM     21  H   LIG d   1       7.260   1.235  -2.685  0.00  0.00     0.066 H 
ATOM     22  C   LIG d   1       5.486  -0.883  -4.638  0.00  0.00     0.162 A 
ATOM     23  C   LIG d   1       6.202  -0.741  -5.816  0.00  0.00    -0.016 A 
ATOM     24  C   LIG d   1       7.291   0.109  -5.866  0.00  0.00    -0.055 A 
ATOM     25  H   LIG d   1       5.910  -1.297  -6.695  0.00  0.00     0.066 H 
ATOM     26  H   LIG d   1       7.848   0.218  -6.785  0.00  0.00     0.062 H 
BRANCH  20  27
ATOM     27  O   LIG d   1       5.167  -0.301  -2.349  0.00  0.00    -0.491 OA
BRANCH  27  28
ATOM     28  C   LIG d   1       4.547   0.875  -1.825  0.00  0.00     0.079 C 
ATOM     29  H   LIG d   1       4.498   1.638  -2.602  0.00  0.00     0.066 H 
ATOM     30  H   LIG d   1       3.538   0.634  -1.488  0.00  0.00     0.066 H 
ATOM     31  H   LIG d   1       5.130   1.251  -0.984  0.00  0.00     0.066 H 
ENDBRANCH  27  28
ENDBRANCH  20  27
BRANCH  22  32
ATOM     32  O   LIG d   1       4.415  -1.719  -4.587  0.00  0.00    -0.491 OA
BRANCH  32  33
ATOM     33  C   LIG d   1       4.685  -3.122  -4.640  0.00  0.00     0.079 C 
ATOM     34  H   LIG d   1       5.598  -3.296  -5.208  0.00  0.00     0.066 H 
ATOM     35  H   LIG d   1       4.807  -3.507  -3.628  0.00  0.00     0.066 H 
ATOM     36  H   LIG d   1       3.852  -3.633  -5.125  0.00  0.00     0.066 H 
ENDBRANCH  32  33
ENDBRANCH  22  32
ENDBRANCH   8  18
BRANCH   1  37
ATOM     37  N   LIG d   1      10.882   6.860  -2.404  0.00  0.00    -0.251 N 
ATOM     38  C   LIG d   1      10.796   6.961  -1.063  0.00  0.00     0.250 C 
ATOM     39  O   LIG d   1      10.814   5.959  -0.376  0.00  0.00    -0.270 OA
ATOM     40  H   LIG d   1      10.868   7.660  -2.953  0.00  0.00     0.158 HD
BRANCH  38  41
ATOM     41  C   LIG d   1      10.680   8.288  -0.429  0.00  0.00     0.037 A 
ATOM     42  C   LIG d   1       9.622   9.136  -0.769  0.00  0.00    -0.046 A 
ATOM     43  C   LIG d   1       9.515  10.372  -0.171  0.00  0.00    -0.019 A 
ATOM     44  H   LIG d   1       8.889   8.822  -1.497  0.00  0.00     0.063 H 
ATOM     45  C   LIG d   1      10.462  10.780   0.761  0.00  0.00     0.120 A 
ATOM     46  H   LIG d   1       8.696  11.026  -0.430  0.00  0.00     0.065 H 
ATOM     47  C   LIG d   1      11.514   9.939   1.103  0.00  0.00    -0.019 A 
ATOM     48  C   LIG d   1      11.626   8.700   0.513  0.00  0.00    -0.046 A 
ATOM     49  H   LIG d   1      12.245  10.259   1.830  0.00  0.00     0.065 H 
ATOM     50  H   LIG d   1      12.445   8.047   0.778  0.00  0.00     0.063 H 
BRANCH  45  51
ATOM     51  O   LIG d   1      10.354  12.001   1.344  0.00  0.00    -0.495 OA
BRANCH  51  52
ATOM     52  C   LIG d   1      11.112  13.066   0.765  0.00  0.00     0.079 C 
ATOM     53  H   LIG d   1      11.558  13.667   1.557  0.00  0.00     0.066 H 
ATOM     54  H   LIG d   1      11.900  12.651   0.137  0.00  0.00     0.066 H 
ATOM     55  H   LIG d   1      10.455  13.691   0.160  0.00  0.00     0.066 H 
ENDBRANCH  51  52
ENDBRANCH  45  51
ENDBRANCH  38  41
ENDBRANCH   1  37
TORSDOF 9
ENDMDL
