MODEL 1
REMARK VINA RESULT:      -5.1      0.000      0.000
REMARK  3 active torsions:
REMARK  status: ('A' for Active; 'I' for Inactive)
REMARK    1  A    between atoms: C_3  and  O_9 
REMARK    2  A    between atoms: O_9  and  C_10 
REMARK    3  A    between atoms: C_10  and  C_11 
ROOT
ATOM      1  C   LIG d   1       4.643  -2.439  -4.978  0.00  0.00    -0.017 A 
ATOM      2  C   LIG d   1       4.015  -1.679  -4.004  0.00  0.00     0.104 A 
ATOM      3  C   LIG d   1       3.549  -0.412  -4.330  0.00  0.00     0.235 A 
ATOM      4  N   LIG d   1       3.699   0.067  -5.553  0.00  0.00    -0.199 NA
ATOM      5  C   LIG d   1       4.292  -0.631  -6.504  0.00  0.00     0.151 A 
ATOM      6  C   LIG d   1       4.782  -1.900  -6.249  0.00  0.00     0.079 A 
ATOM      7 CL   LIG d   1       5.562  -2.808  -7.507  0.00  0.00    -0.080 Cl
ATOM      8 CL   LIG d   1       4.461   0.052  -8.091  0.00  0.00    -0.060 Cl
ATOM      9 CL   LIG d   1       3.813  -2.304  -2.396  0.00  0.00    -0.078 Cl
ATOM     10  H   LIG d   1       5.019  -3.425  -4.751  0.00  0.00     0.065 H 
ENDROOT
BRANCH   3  11
ATOM     11  O   LIG d   1       2.932   0.341  -3.384  0.00  0.00    -0.469 OA
BRANCH  11  12
ATOM     12  C   LIG d   1       3.516   1.610  -3.083  0.00  0.00     0.130 C 
ATOM     13  H   LIG d   1       3.672   2.167  -4.007  0.00  0.00     0.076 H 
ATOM     14  H   LIG d   1       2.848   2.171  -2.429  0.00  0.00     0.076 H 
BRANCH  12  15
ATOM     15  C   LIG d   1       4.839   1.402  -2.391  0.00  0.00     0.079 C 
ATOM     16  O   LIG d   1       4.870   0.994  -1.243  0.00  0.00    -0.546 OA
ATOM     17  O   LIG d   1       5.879   1.642  -2.981  0.00  0.00    -0.546 OA
ENDBRANCH  12  15
ENDBRANCH  11  12
ENDBRANCH   3  11
TORSDOF 3
ENDMDL
MODEL 2
REMARK VINA RESULT:      -5.0      3.774      5.616
REMARK  3 active torsions:
REMARK  status: ('A' for Active; 'I' for Inactive)
REMARK    1  A    between atoms: C_3  and  O_9 
REMARK    2  A    between atoms: O_9  and  C_10 
REMARK    3  A    between atoms: C_10  and  C_11 
ROOT
ATOM      1  C   LIG d   1       6.270  -1.075  -3.063  0.00  0.00    -0.017 A 
ATOM      2  C   LIG d   1       6.420  -2.228  -3.818  0.00  0.00     0.104 A 
ATOM      3  C   LIG d   1       5.287  -2.911  -4.242  0.00  0.00     0.235 A 
ATOM      4  N   LIG d   1       4.079  -2.471  -3.933  0.00  0.00    -0.199 NA
ATOM      5  C   LIG d   1       3.902  -1.376  -3.215  0.00  0.00     0.151 A 
ATOM      6  C   LIG d   1       4.985  -0.646  -2.759  0.00  0.00     0.079 A 
ATOM      7 CL   LIG d   1       4.741   0.791  -1.816  0.00  0.00    -0.080 Cl
ATOM      8 CL   LIG d   1       2.291  -0.847  -2.840  0.00  0.00    -0.060 Cl
ATOM      9 CL   LIG d   1       8.003  -2.810  -4.229  0.00  0.00    -0.078 Cl
ATOM     10  H   LIG d   1       7.133  -0.526  -2.716  0.00  0.00     0.065 H 
ENDROOT
BRANCH   3  11
ATOM     11  O   LIG d   1       5.421  -4.040  -4.981  0.00  0.00    -0.469 OA
BRANCH  11  12
ATOM     12  C   LIG d   1       4.938  -3.997  -6.326  0.00  0.00     0.130 C 
ATOM     13  H   LIG d   1       4.440  -3.043  -6.502  0.00  0.00     0.076 H 
ATOM     14  H   LIG d   1       5.775  -4.102  -7.016  0.00  0.00     0.076 H 
BRANCH  12  15
ATOM     15  C   LIG d   1       3.961  -5.123  -6.545  0.00  0.00     0.079 C 
ATOM     16  O   LIG d   1       3.409  -5.252  -7.624  0.00  0.00    -0.546 OA
ATOM     17  O   LIG d   1       3.723  -5.907  -5.642  0.00  0.00    -0.546 OA
ENDBRANCH  12  15
ENDBRANCH  11  12
ENDBRANCH   3  11
TORSDOF 3
ENDMDL
MODEL 3
REMARK VINA RESULT:      -4.9      3.440      4.687
REMARK  3 active torsions:
REMARK  status: ('A' for Active; 'I' for Inactive)
REMARK    1  A    between atoms: C_3  and  O_9 
REMARK    2  A    between atoms: O_9  and  C_10 
REMARK    3  A    between atoms: C_10  and  C_11 
ROOT
ATOM      1  C   LIG d   1       6.138  -1.957  -3.504  0.00  0.00    -0.017 A 
ATOM      2  C   LIG d   1       7.235  -1.258  -3.982  0.00  0.00     0.104 A 
ATOM      3  C   LIG d   1       7.301   0.115  -3.784  0.00  0.00     0.235 A 
ATOM      4  N   LIG d   1       6.333   0.751  -3.146  0.00  0.00    -0.199 NA
ATOM      5  C   LIG d   1       5.276   0.114  -2.677  0.00  0.00     0.151 A 
ATOM      6  C   LIG d   1       5.143  -1.253  -2.840  0.00  0.00     0.079 A 
ATOM      7 CL   LIG d   1       3.747  -2.080  -2.221  0.00  0.00    -0.080 Cl
ATOM      8 CL   LIG d   1       4.036   1.004  -1.849  0.00  0.00    -0.060 Cl
ATOM      9 CL   LIG d   1       8.510  -2.088  -4.819  0.00  0.00    -0.078 Cl
ATOM     10  H   LIG d   1       6.058  -3.025  -3.648  0.00  0.00     0.065 H 
ENDROOT
BRANCH   3  11
ATOM     11  O   LIG d   1       8.370   0.810  -4.248  0.00  0.00    -0.469 OA
BRANCH  11  12
ATOM     12  C   LIG d   1       8.314   2.234  -4.140  0.00  0.00     0.130 C 
ATOM     13  H   LIG d   1       8.272   2.672  -5.138  0.00  0.00     0.076 H 
ATOM     14  H   LIG d   1       7.426   2.522  -3.579  0.00  0.00     0.076 H 
BRANCH  12  15
ATOM     15  C   LIG d   1       9.544   2.732  -3.425  0.00  0.00     0.079 C 
ATOM     16  O   LIG d   1      10.572   2.076  -3.449  0.00  0.00    -0.546 OA
ATOM     17  O   LIG d   1       9.511   3.790  -2.821  0.00  0.00    -0.546 OA
ENDBRANCH  12  15
ENDBRANCH  11  12
ENDBRANCH   3  11
TORSDOF 3
ENDMDL
MODEL 4
REMARK VINA RESULT:      -4.8      2.847      4.627
REMARK  3 active torsions:
REMARK  status: ('A' for Active; 'I' for Inactive)
REMARK    1  A    between atoms: C_3  and  O_9 
REMARK    2  A    between atoms: O_9  and  C_10 
REMARK    3  A    between atoms: C_10  and  C_11 
ROOT
ATOM      1  C   LIG d   1       4.540  -2.360  -4.675  0.00  0.00    -0.017 A 
ATOM      2  C   LIG d   1       4.785  -1.766  -5.903  0.00  0.00     0.104 A 
ATOM      3  C   LIG d   1       4.559  -0.404  -6.053  0.00  0.00     0.235 A 
ATOM      4  N   LIG d   1       4.116   0.322  -5.040  0.00  0.00    -0.199 NA
ATOM      5  C   LIG d   1       3.873  -0.213  -3.858  0.00  0.00     0.151 A 
ATOM      6  C   LIG d   1       4.075  -1.564  -3.637  0.00  0.00     0.079 A 
ATOM      7 CL   LIG d   1       3.751  -2.256  -2.078  0.00  0.00    -0.080 Cl
ATOM      8 CL   LIG d   1       3.292   0.791  -2.565  0.00  0.00    -0.060 Cl
ATOM      9 CL   LIG d   1       5.369  -2.713  -7.236  0.00  0.00    -0.078 Cl
ATOM     10  H   LIG d   1       4.703  -3.417  -4.530  0.00  0.00     0.065 H 
ENDROOT
BRANCH   3  11
ATOM     11  O   LIG d   1       4.795   0.188  -7.251  0.00  0.00    -0.469 OA
BRANCH  11  12
ATOM     12  C   LIG d   1       3.688   0.304  -8.148  0.00  0.00     0.130 C 
ATOM     13  H   LIG d   1       3.856  -0.336  -9.015  0.00  0.00     0.076 H 
ATOM     14  H   LIG d   1       2.776  -0.005  -7.639  0.00  0.00     0.076 H 
BRANCH  12  15
ATOM     15  C   LIG d   1       3.554   1.736  -8.597  0.00  0.00     0.079 C 
ATOM     16  O   LIG d   1       2.804   2.494  -8.006  0.00  0.00    -0.546 OA
ATOM     17  O   LIG d   1       4.197   2.137  -9.553  0.00  0.00    -0.546 OA
ENDBRANCH  12  15
ENDBRANCH  11  12
ENDBRANCH   3  11
TORSDOF 3
ENDMDL
MODEL 5
REMARK VINA RESULT:      -4.8      3.103      3.629
REMARK  3 active torsions:
REMARK  status: ('A' for Active; 'I' for Inactive)
REMARK    1  A    between atoms: C_3  and  O_9 
REMARK    2  A    between atoms: O_9  and  C_10 
REMARK    3  A    between atoms: C_10  and  C_11 
ROOT
ATOM      1  C   LIG d   1       7.358  -0.882  -4.090  0.00  0.00    -0.017 A 
ATOM      2  C   LIG d   1       6.227  -0.720  -3.307  0.00  0.00     0.104 A 
ATOM      3  C   LIG d   1       5.836   0.562  -2.941  0.00  0.00     0.235 A 
ATOM      4  N   LIG d   1       6.530   1.617  -3.333  0.00  0.00    -0.199 NA
ATOM      5  C   LIG d   1       7.612   1.496  -4.080  0.00  0.00     0.151 A 
ATOM      6  C   LIG d   1       8.061   0.250  -4.481  0.00  0.00     0.079 A 
ATOM      7 CL   LIG d   1       9.485   0.103  -5.462  0.00  0.00    -0.080 Cl
ATOM      8 CL   LIG d   1       8.484   2.918  -4.564  0.00  0.00    -0.060 Cl
ATOM      9 CL   LIG d   1       5.309  -2.100  -2.790  0.00  0.00    -0.078 Cl
ATOM     10  H   LIG d   1       7.688  -1.867  -4.386  0.00  0.00     0.065 H 
ENDROOT
BRANCH   3  11
ATOM     11  O   LIG d   1       4.730   0.733  -2.174  0.00  0.00    -0.469 OA
BRANCH  11  12
ATOM     12  C   LIG d   1       3.649   1.470  -2.750  0.00  0.00     0.130 C 
ATOM     13  H   LIG d   1       2.917   1.706  -1.976  0.00  0.00     0.076 H 
ATOM     14  H   LIG d   1       4.030   2.394  -3.184  0.00  0.00     0.076 H 
BRANCH  12  15
ATOM     15  C   LIG d   1       2.994   0.642  -3.825  0.00  0.00     0.079 C 
ATOM     16  O   LIG d   1       2.480  -0.427  -3.545  0.00  0.00    -0.546 OA
ATOM     17  O   LIG d   1       2.977   1.042  -4.977  0.00  0.00    -0.546 OA
ENDBRANCH  12  15
ENDBRANCH  11  12
ENDBRANCH   3  11
TORSDOF 3
ENDMDL
MODEL 6
REMARK VINA RESULT:      -4.7      1.830      2.649
REMARK  3 active torsions:
REMARK  status: ('A' for Active; 'I' for Inactive)
REMARK    1  A    between atoms: C_3  and  O_9 
REMARK    2  A    between atoms: O_9  and  C_10 
REMARK    3  A    between atoms: C_10  and  C_11 
ROOT
ATOM      1  C   LIG d   1       3.910  -1.655  -7.976  0.00  0.00    -0.017 A 
ATOM      2  C   LIG d   1       4.217  -1.594  -6.626  0.00  0.00     0.104 A 
ATOM      3  C   LIG d   1       4.026  -0.400  -5.942  0.00  0.00     0.235 A 
ATOM      4  N   LIG d   1       3.556   0.667  -6.567  0.00  0.00    -0.199 NA
ATOM      5  C   LIG d   1       3.254   0.641  -7.852  0.00  0.00     0.151 A 
ATOM      6  C   LIG d   1       3.420  -0.514  -8.595  0.00  0.00     0.079 A 
ATOM      7 CL   LIG d   1       3.020  -0.535 -10.285  0.00  0.00    -0.080 Cl
ATOM      8 CL   LIG d   1       2.641   2.074  -8.618  0.00  0.00    -0.060 Cl
ATOM      9 CL   LIG d   1       4.832  -2.992  -5.800  0.00  0.00    -0.078 Cl
ATOM     10  H   LIG d   1       4.052  -2.569  -8.534  0.00  0.00     0.065 H 
ENDROOT
BRANCH   3  11
ATOM     11  O   LIG d   1       4.323  -0.328  -4.620  0.00  0.00    -0.469 OA
BRANCH  11  12
ATOM     12  C   LIG d   1       3.248  -0.023  -3.729  0.00  0.00     0.130 C 
ATOM     13  H   LIG d   1       2.341   0.166  -4.305  0.00  0.00     0.076 H 
ATOM     14  H   LIG d   1       3.082  -0.865  -3.058  0.00  0.00     0.076 H 
BRANCH  12  15
ATOM     15  C   LIG d   1       3.596   1.201  -2.923  0.00  0.00     0.079 C 
ATOM     16  O   LIG d   1       3.617   2.298  -3.455  0.00  0.00    -0.546 OA
ATOM     17  O   LIG d   1       3.857   1.095  -1.736  0.00  0.00    -0.546 OA
ENDBRANCH  12  15
ENDBRANCH  11  12
ENDBRANCH   3  11
TORSDOF 3
ENDMDL
MODEL 7
REMARK VINA RESULT:      -4.6      3.638      5.111
REMARK  3 active torsions:
REMARK  status: ('A' for Active; 'I' for Inactive)
REMARK    1  A    between atoms: C_3  and  O_9 
REMARK    2  A    between atoms: O_9  and  C_10 
REMARK    3  A    between atoms: C_10  and  C_11 
ROOT
ATOM      1  C   LIG d   1       3.469   0.702 -10.841  0.00  0.00    -0.017 A 
ATOM      2  C   LIG d   1       3.579   1.206  -9.555  0.00  0.00     0.104 A 
ATOM      3  C   LIG d   1       3.017   0.498  -8.500  0.00  0.00     0.235 A 
ATOM      4  N   LIG d   1       2.384  -0.643  -8.716  0.00  0.00    -0.199 NA
ATOM      5  C   LIG d   1       2.262  -1.151  -9.929  0.00  0.00     0.151 A 
ATOM      6  C   LIG d   1       2.797  -0.498 -11.026  0.00  0.00     0.079 A 
ATOM      7 CL   LIG d   1       2.630  -1.174 -12.616  0.00  0.00    -0.080 Cl
ATOM      8 CL   LIG d   1       1.420  -2.653 -10.150  0.00  0.00    -0.060 Cl
ATOM      9 CL   LIG d   1       4.410   2.703  -9.264  0.00  0.00    -0.078 Cl
ATOM     10  H   LIG d   1       3.893   1.233 -11.680  0.00  0.00     0.065 H 
ENDROOT
BRANCH   3  11
ATOM     11  O   LIG d   1       3.118   0.981  -7.236  0.00  0.00    -0.469 OA
BRANCH  11  12
ATOM     12  C   LIG d   1       3.217   0.023  -6.181  0.00  0.00     0.130 C 
ATOM     13  H   LIG d   1       2.642  -0.866  -6.443  0.00  0.00     0.076 H 
ATOM     14  H   LIG d   1       4.262  -0.250  -6.035  0.00  0.00     0.076 H 
BRANCH  12  15
ATOM     15  C   LIG d   1       2.671   0.619  -4.909  0.00  0.00     0.079 C 
ATOM     16  O   LIG d   1       2.470   1.819  -4.834  0.00  0.00    -0.546 OA
ATOM     17  O   LIG d   1       2.429  -0.100  -3.954  0.00  0.00    -0.546 OA
ENDBRANCH  12  15
ENDBRANCH  11  12
ENDBRANCH   3  11
TORSDOF 3
ENDMDL
MODEL 8
REMARK VINA RESULT:      -4.5      2.953      4.014
REMARK  3 active torsions:
REMARK  status: ('A' for Active; 'I' for Inactive)
REMARK    1  A    between atoms: C_3  and  O_9 
REMARK    2  A    between atoms: O_9  and  C_10 
REMARK    3  A    between atoms: C_10  and  C_11 
ROOT
ATOM      1  C   LIG d   1       5.040  -1.567  -3.479  0.00  0.00    -0.017 A 
ATOM      2  C   LIG d   1       4.007  -0.850  -4.062  0.00  0.00     0.104 A 
ATOM      3  C   LIG d   1       4.233  -0.194  -5.265  0.00  0.00     0.235 A 
ATOM      4  N   LIG d   1       5.417  -0.251  -5.852  0.00  0.00    -0.199 NA
ATOM      5  C   LIG d   1       6.422  -0.926  -5.323  0.00  0.00     0.151 A 
ATOM      6  C   LIG d   1       6.268  -1.602  -4.126  0.00  0.00     0.079 A 
ATOM      7 CL   LIG d   1       7.596  -2.485  -3.440  0.00  0.00    -0.080 Cl
ATOM      8 CL   LIG d   1       7.954  -0.964  -6.140  0.00  0.00    -0.060 Cl
ATOM      9 CL   LIG d   1       2.450  -0.773  -3.298  0.00  0.00    -0.078 Cl
ATOM     10  H   LIG d   1       4.894  -2.083  -2.542  0.00  0.00     0.065 H 
ENDROOT
BRANCH   3  11
ATOM     11  O   LIG d   1       3.229   0.510  -5.845  0.00  0.00    -0.469 OA
BRANCH  11  12
ATOM     12  C   LIG d   1       2.790   0.074  -7.133  0.00  0.00     0.130 C 
ATOM     13  H   LIG d   1       3.342  -0.822  -7.421  0.00  0.00     0.076 H 
ATOM     14  H   LIG d   1       1.725  -0.151  -7.097  0.00  0.00     0.076 H 
BRANCH  12  15
ATOM     15  C   LIG d   1       3.039   1.164  -8.144  0.00  0.00     0.079 C 
ATOM     16  O   LIG d   1       3.427   0.881  -9.265  0.00  0.00    -0.546 OA
ATOM     17  O   LIG d   1       2.851   2.330  -7.841  0.00  0.00    -0.546 OA
ENDBRANCH  12  15
ENDBRANCH  11  12
ENDBRANCH   3  11
TORSDOF 3
ENDMDL
MODEL 9
REMARK VINA RESULT:      -4.2      3.793      5.475
REMARK  3 active torsions:
REMARK  status: ('A' for Active; 'I' for Inactive)
REMARK    1  A    between atoms: C_3  and  O_9 
REMARK    2  A    between atoms: O_9  and  C_10 
REMARK    3  A    between atoms: C_10  and  C_11 
ROOT
ATOM      1  C   LIG d   1       6.250   0.995  -3.236  0.00  0.00    -0.017 A 
ATOM      2  C   LIG d   1       7.289   0.308  -3.843  0.00  0.00     0.104 A 
ATOM      3  C   LIG d   1       7.230  -1.078  -3.919  0.00  0.00     0.235 A 
ATOM      4  N   LIG d   1       6.198  -1.737  -3.422  0.00  0.00    -0.199 NA
ATOM      5  C   LIG d   1       5.192  -1.113  -2.838  0.00  0.00     0.151 A 
ATOM      6  C   LIG d   1       5.184   0.266  -2.725  0.00  0.00     0.079 A 
ATOM      7 CL   LIG d   1       3.856   1.077  -1.954  0.00  0.00    -0.080 Cl
ATOM      8 CL   LIG d   1       3.863  -2.033  -2.202  0.00  0.00    -0.060 Cl
ATOM      9 CL   LIG d   1       8.647   1.168  -4.500  0.00  0.00    -0.078 Cl
ATOM     10  H   LIG d   1       6.271   2.072  -3.159  0.00  0.00     0.065 H 
ENDROOT
BRANCH   3  11
ATOM     11  O   LIG d   1       8.242  -1.761  -4.512  0.00  0.00    -0.469 OA
BRANCH  11  12
ATOM     12  C   LIG d   1       7.895  -2.617  -5.603  0.00  0.00     0.130 C 
ATOM     13  H   LIG d   1       8.730  -3.284  -5.820  0.00  0.00     0.076 H 
ATOM     14  H   LIG d   1       7.019  -3.207  -5.338  0.00  0.00     0.076 H 
BRANCH  12  15
ATOM     15  C   LIG d   1       7.590  -1.781  -6.819  0.00  0.00     0.079 C 
ATOM     16  O   LIG d   1       8.446  -1.052  -7.290  0.00  0.00    -0.546 OA
ATOM     17  O   LIG d   1       6.485  -1.833  -7.332  0.00  0.00    -0.546 OA
ENDBRANCH  12  15
ENDBRANCH  11  12
ENDBRANCH   3  11
TORSDOF 3
ENDMDL
MODEL 10
REMARK VINA RESULT:      -4.2      3.329      5.566
REMARK  3 active torsions:
REMARK  status: ('A' for Active; 'I' for Inactive)
REMARK    1  A    between atoms: C_3  and  O_9 
REMARK    2  A    between atoms: O_9  and  C_10 
REMARK    3  A    between atoms: C_10  and  C_11 
ROOT
ATOM      1  C   LIG d   1       3.415   0.191  -5.365  0.00  0.00    -0.017 A 
ATOM      2  C   LIG d   1       3.876  -0.610  -6.397  0.00  0.00     0.104 A 
ATOM      3  C   LIG d   1       4.463  -1.832  -6.095  0.00  0.00     0.235 A 
ATOM      4  N   LIG d   1       4.581  -2.232  -4.840  0.00  0.00    -0.199 NA
ATOM      5  C   LIG d   1       4.151  -1.493  -3.833  0.00  0.00     0.151 A 
ATOM      6  C   LIG d   1       3.557  -0.264  -4.061  0.00  0.00     0.079 A 
ATOM      7 CL   LIG d   1       2.996   0.700  -2.730  0.00  0.00    -0.080 Cl
ATOM      8 CL   LIG d   1       4.333  -2.069  -2.206  0.00  0.00    -0.060 Cl
ATOM      9 CL   LIG d   1       3.723  -0.093  -8.048  0.00  0.00    -0.078 Cl
ATOM     10  H   LIG d   1       2.958   1.147  -5.570  0.00  0.00     0.065 H 
ENDROOT
BRANCH   3  11
ATOM     11  O   LIG d   1       4.919  -2.625  -7.097  0.00  0.00    -0.469 OA
BRANCH  11  12
ATOM     12  C   LIG d   1       4.010  -3.595  -7.622  0.00  0.00     0.130 C 
ATOM     13  H   LIG d   1       2.986  -3.258  -7.459  0.00  0.00     0.076 H 
ATOM     14  H   LIG d   1       4.187  -3.719  -8.690  0.00  0.00     0.076 H 
BRANCH  12  15
ATOM     15  C   LIG d   1       4.223  -4.913  -6.921  0.00  0.00     0.079 C 
ATOM     16  O   LIG d   1       3.360  -5.360  -6.185  0.00  0.00    -0.546 OA
ATOM     17  O   LIG d   1       5.259  -5.533  -7.092  0.00  0.00    -0.546 OA
ENDBRANCH  12  15
ENDBRANCH  11  12
ENDBRANCH   3  11
TORSDOF 3
ENDMDL
