MODEL 1
REMARK VINA RESULT:      -4.2      0.000      0.000
REMARK  4 active torsions:
REMARK  status: ('A' for Active; 'I' for Inactive)
REMARK    1  A    between atoms: C_1  and  O_2 
REMARK    2  A    between atoms: O_2  and  C_3 
REMARK    3  A    between atoms: C_3  and  C_4 
REMARK    4  A    between atoms: C_4  and  C_6 
ROOT
ATOM      1  C   LIG d   1       2.993   0.381  -5.151  0.00  0.00     0.223 C 
ATOM      2  O   LIG d   1       2.675   1.465  -4.705  0.00  0.00    -0.286 OA
ENDROOT
BRANCH   1   3
ATOM      3  C   LIG d   1       2.917   0.126  -6.634  0.00  0.00     0.113 C 
ATOM      4  H   LIG d   1       2.014  -0.238  -6.864  0.00  0.00     0.064 H 
ATOM      5  H   LIG d   1       3.683  -0.596  -6.918  0.00  0.00     0.064 H 
BRANCH   3   6
ATOM      6  O   LIG d   1       3.132   1.349  -7.341  0.00  0.00    -0.375 OA
BRANCH   6   7
ATOM      7  C   LIG d   1       2.797   1.287  -8.728  0.00  0.00     0.037 C 
ATOM      8  H   LIG d   1       1.906   1.886  -8.914  0.00  0.00     0.052 H 
ATOM      9  H   LIG d   1       3.626   1.676  -9.320  0.00  0.00     0.052 H 
ATOM     10  H   LIG d   1       2.604   0.251  -9.009  0.00  0.00     0.052 H 
ENDBRANCH   6   7
ENDBRANCH   3   6
ENDBRANCH   1   3
BRANCH   1  11
ATOM     11  C   LIG d   1       3.432  -0.640  -4.280  0.00  0.00     0.172 A 
ATOM     12  O   LIG d   1       4.407  -1.541  -4.535  0.00  0.00    -0.460 OA
ATOM     13  C   LIG d   1       4.553  -2.350  -3.479  0.00  0.00     0.093 A 
ATOM     14  C   LIG d   1       3.665  -1.993  -2.523  0.00  0.00    -0.023 A 
ATOM     15  H   LIG d   1       5.262  -3.162  -3.406  0.00  0.00     0.103 H 
ATOM     16  C   LIG d   1       2.940  -0.901  -3.016  0.00  0.00    -0.013 A 
ATOM     17  H   LIG d   1       3.539  -2.462  -1.558  0.00  0.00     0.065 H 
ATOM     18  H   LIG d   1       2.150  -0.367  -2.509  0.00  0.00     0.066 H 
ENDBRANCH   1  11
TORSDOF 4
ENDMDL
MODEL 2
REMARK VINA RESULT:      -4.0      2.848      4.161
REMARK  4 active torsions:
REMARK  status: ('A' for Active; 'I' for Inactive)
REMARK    1  A    between atoms: C_1  and  O_2 
REMARK    2  A    between atoms: O_2  and  C_3 
REMARK    3  A    between atoms: C_3  and  C_4 
REMARK    4  A    between atoms: C_4  and  C_6 
ROOT
ATOM      1  C   LIG d   1       4.055  -1.996  -3.117  0.00  0.00     0.223 C 
ATOM      2  O   LIG d   1       3.553  -2.799  -2.357  0.00  0.00    -0.286 OA
ENDROOT
BRANCH   1   3
ATOM      3  C   LIG d   1       4.732  -2.475  -4.376  0.00  0.00     0.113 C 
ATOM      4  H   LIG d   1       4.137  -2.300  -5.161  0.00  0.00     0.064 H 
ATOM      5  H   LIG d   1       4.927  -3.544  -4.300  0.00  0.00     0.064 H 
BRANCH   3   6
ATOM      6  O   LIG d   1       5.967  -1.776  -4.549  0.00  0.00    -0.375 OA
BRANCH   6   7
ATOM      7  C   LIG d   1       7.059  -2.337  -3.819  0.00  0.00     0.037 C 
ATOM      8  H   LIG d   1       6.953  -2.091  -2.761  0.00  0.00     0.052 H 
ATOM      9  H   LIG d   1       7.060  -3.420  -3.941  0.00  0.00     0.052 H 
ATOM     10  H   LIG d   1       7.996  -1.927  -4.194  0.00  0.00     0.052 H 
ENDBRANCH   6   7
ENDBRANCH   3   6
ENDBRANCH   1   3
BRANCH   1  11
ATOM     11  C   LIG d   1       4.006  -0.616  -2.822  0.00  0.00     0.172 A 
ATOM     12  O   LIG d   1       3.384   0.334  -3.554  0.00  0.00    -0.460 OA
ATOM     13  C   LIG d   1       3.545   1.525  -2.966  0.00  0.00     0.093 A 
ATOM     14  C   LIG d   1       4.286   1.369  -1.846  0.00  0.00    -0.023 A 
ATOM     15  H   LIG d   1       3.152   2.463  -3.333  0.00  0.00     0.103 H 
ATOM     16  C   LIG d   1       4.590   0.006  -1.736  0.00  0.00    -0.013 A 
ATOM     17  H   LIG d   1       4.586   2.149  -1.162  0.00  0.00     0.065 H 
ATOM     18  H   LIG d   1       5.168  -0.467  -0.956  0.00  0.00     0.066 H 
ENDBRANCH   1  11
TORSDOF 4
ENDMDL
MODEL 3
REMARK VINA RESULT:      -4.0      1.469      1.738
REMARK  4 active torsions:
REMARK  status: ('A' for Active; 'I' for Inactive)
REMARK    1  A    between atoms: C_1  and  O_2 
REMARK    2  A    between atoms: O_2  and  C_3 
REMARK    3  A    between atoms: C_3  and  C_4 
REMARK    4  A    between atoms: C_4  and  C_6 
ROOT
ATOM      1  C   LIG d   1       3.249   0.135  -5.093  0.00  0.00     0.223 C 
ATOM      2  O   LIG d   1       2.598   1.159  -5.045  0.00  0.00    -0.286 OA
ENDROOT
BRANCH   1   3
ATOM      3  C   LIG d   1       3.695  -0.411  -6.425  0.00  0.00     0.113 C 
ATOM      4  H   LIG d   1       2.938  -0.359  -7.077  0.00  0.00     0.064 H 
ATOM      5  H   LIG d   1       4.002  -1.450  -6.307  0.00  0.00     0.064 H 
BRANCH   3   6
ATOM      6  O   LIG d   1       4.796   0.359  -6.912  0.00  0.00    -0.375 OA
BRANCH   6   7
ATOM      7  C   LIG d   1       6.070  -0.252  -6.703  0.00  0.00     0.037 C 
ATOM      8  H   LIG d   1       6.357  -0.146  -5.656  0.00  0.00     0.052 H 
ATOM      9  H   LIG d   1       6.012  -1.310  -6.958  0.00  0.00     0.052 H 
ATOM     10  H   LIG d   1       6.815   0.234  -7.334  0.00  0.00     0.052 H 
ENDBRANCH   6   7
ENDBRANCH   3   6
ENDBRANCH   1   3
BRANCH   1  11
ATOM     11  C   LIG d   1       3.587  -0.545  -3.902  0.00  0.00     0.172 A 
ATOM     12  O   LIG d   1       3.420  -1.864  -3.663  0.00  0.00    -0.460 OA
ATOM     13  C   LIG d   1       3.858  -2.152  -2.432  0.00  0.00     0.093 A 
ATOM     14  C   LIG d   1       4.307  -1.019  -1.846  0.00  0.00    -0.023 A 
ATOM     15  H   LIG d   1       3.847  -3.132  -1.976  0.00  0.00     0.103 H 
ATOM     16  C   LIG d   1       4.143   0.020  -2.771  0.00  0.00    -0.013 A 
ATOM     17  H   LIG d   1       4.718  -0.931  -0.851  0.00  0.00     0.065 H 
ATOM     18  H   LIG d   1       4.400   1.060  -2.629  0.00  0.00     0.066 H 
ENDBRANCH   1  11
TORSDOF 4
ENDMDL
MODEL 4
REMARK VINA RESULT:      -4.0      1.948      2.621
REMARK  4 active torsions:
REMARK  status: ('A' for Active; 'I' for Inactive)
REMARK    1  A    between atoms: C_1  and  O_2 
REMARK    2  A    between atoms: O_2  and  C_3 
REMARK    3  A    between atoms: C_3  and  C_4 
REMARK    4  A    between atoms: C_4  and  C_6 
ROOT
ATOM      1  C   LIG d   1       4.317  -1.477  -4.572  0.00  0.00     0.223 C 
ATOM      2  O   LIG d   1       4.114  -2.624  -4.230  0.00  0.00    -0.286 OA
ENDROOT
BRANCH   1   3
ATOM      3  C   LIG d   1       4.348  -1.122  -6.036  0.00  0.00     0.113 C 
ATOM      4  H   LIG d   1       4.200  -1.947  -6.582  0.00  0.00     0.064 H 
ATOM      5  H   LIG d   1       5.318  -0.691  -6.285  0.00  0.00     0.064 H 
BRANCH   3   6
ATOM      6  O   LIG d   1       3.318  -0.173  -6.319  0.00  0.00    -0.375 OA
BRANCH   6   7
ATOM      7  C   LIG d   1       2.870  -0.187  -7.676  0.00  0.00     0.037 C 
ATOM      8  H   LIG d   1       2.561  -1.197  -7.945  0.00  0.00     0.052 H 
ATOM      9  H   LIG d   1       2.026   0.493  -7.786  0.00  0.00     0.052 H 
ATOM     10  H   LIG d   1       3.682   0.131  -8.330  0.00  0.00     0.052 H 
ENDBRANCH   6   7
ENDBRANCH   3   6
ENDBRANCH   1   3
BRANCH   1  11
ATOM     11  C   LIG d   1       4.525  -0.475  -3.598  0.00  0.00     0.172 A 
ATOM     12  O   LIG d   1       5.185   0.689  -3.781  0.00  0.00    -0.460 OA
ATOM     13  C   LIG d   1       5.178   1.389  -2.641  0.00  0.00     0.093 A 
ATOM     14  C   LIG d   1       4.521   0.683  -1.693  0.00  0.00    -0.023 A 
ATOM     15  H   LIG d   1       5.632   2.360  -2.498  0.00  0.00     0.103 H 
ATOM     16  C   LIG d   1       4.095  -0.512  -2.286  0.00  0.00    -0.013 A 
ATOM     17  H   LIG d   1       4.353   0.985  -0.669  0.00  0.00     0.065 H 
ATOM     18  H   LIG d   1       3.539  -1.307  -1.812  0.00  0.00     0.066 H 
ENDBRANCH   1  11
TORSDOF 4
ENDMDL
MODEL 5
REMARK VINA RESULT:      -3.9      1.824      4.725
REMARK  4 active torsions:
REMARK  status: ('A' for Active; 'I' for Inactive)
REMARK    1  A    between atoms: C_1  and  O_2 
REMARK    2  A    between atoms: O_2  and  C_3 
REMARK    3  A    between atoms: C_3  and  C_4 
REMARK    4  A    between atoms: C_4  and  C_6 
ROOT
ATOM      1  C   LIG d   1       3.314  -0.043  -5.820  0.00  0.00     0.223 C 
ATOM      2  O   LIG d   1       4.190  -0.871  -5.668  0.00  0.00    -0.286 OA
ENDROOT
BRANCH   1   3
ATOM      3  C   LIG d   1       2.554   0.475  -4.626  0.00  0.00     0.113 C 
ATOM      4  H   LIG d   1       2.381  -0.277  -3.989  0.00  0.00     0.064 H 
ATOM      5  H   LIG d   1       1.604   0.897  -4.956  0.00  0.00     0.064 H 
BRANCH   3   6
ATOM      6  O   LIG d   1       3.323   1.486  -3.972  0.00  0.00    -0.375 OA
BRANCH   6   7
ATOM      7  C   LIG d   1       3.625   1.196  -2.606  0.00  0.00     0.037 C 
ATOM      8  H   LIG d   1       3.594   2.117  -2.024  0.00  0.00     0.052 H 
ATOM      9  H   LIG d   1       2.890   0.493  -2.214  0.00  0.00     0.052 H 
ATOM     10  H   LIG d   1       4.620   0.757  -2.539  0.00  0.00     0.052 H 
ENDBRANCH   6   7
ENDBRANCH   3   6
ENDBRANCH   1   3
BRANCH   1  11
ATOM     11  C   LIG d   1       3.008   0.433  -7.114  0.00  0.00     0.172 A 
ATOM     12  O   LIG d   1       3.115   1.711  -7.539  0.00  0.00    -0.460 OA
ATOM     13  C   LIG d   1       2.743   1.786  -8.822  0.00  0.00     0.093 A 
ATOM     14  C   LIG d   1       2.377   0.556  -9.248  0.00  0.00    -0.023 A 
ATOM     15  H   LIG d   1       2.730   2.687  -9.419  0.00  0.00     0.103 H 
ATOM     16  C   LIG d   1       2.540  -0.323  -8.170  0.00  0.00    -0.013 A 
ATOM     17  H   LIG d   1       2.026   0.298 -10.237  0.00  0.00     0.065 H 
ATOM     18  H   LIG d   1       2.340  -1.385  -8.165  0.00  0.00     0.066 H 
ENDBRANCH   1  11
TORSDOF 4
ENDMDL
MODEL 6
REMARK VINA RESULT:      -3.9      3.457      4.253
REMARK  4 active torsions:
REMARK  status: ('A' for Active; 'I' for Inactive)
REMARK    1  A    between atoms: C_1  and  O_2 
REMARK    2  A    between atoms: O_2  and  C_3 
REMARK    3  A    between atoms: C_3  and  C_4 
REMARK    4  A    between atoms: C_4  and  C_6 
ROOT
ATOM      1  C   LIG d   1       6.762   0.010  -3.448  0.00  0.00     0.223 C 
ATOM      2  O   LIG d   1       7.083  -1.143  -3.240  0.00  0.00    -0.286 OA
ENDROOT
BRANCH   1   3
ATOM      3  C   LIG d   1       7.791   1.004  -3.921  0.00  0.00     0.113 C 
ATOM      4  H   LIG d   1       8.678   0.550  -4.006  0.00  0.00     0.064 H 
ATOM      5  H   LIG d   1       7.867   1.819  -3.201  0.00  0.00     0.064 H 
BRANCH   3   6
ATOM      6  O   LIG d   1       7.399   1.527  -5.192  0.00  0.00    -0.375 OA
BRANCH   6   7
ATOM      7  C   LIG d   1       8.484   2.029  -5.974  0.00  0.00     0.037 C 
ATOM      8  H   LIG d   1       8.134   2.857  -6.591  0.00  0.00     0.052 H 
ATOM      9  H   LIG d   1       9.277   2.378  -5.314  0.00  0.00     0.052 H 
ATOM     10  H   LIG d   1       8.867   1.235  -6.616  0.00  0.00     0.052 H 
ENDBRANCH   6   7
ENDBRANCH   3   6
ENDBRANCH   1   3
BRANCH   1  11
ATOM     11  C   LIG d   1       5.425   0.419  -3.245  0.00  0.00     0.172 A 
ATOM     12  O   LIG d   1       4.446   0.435  -4.175  0.00  0.00    -0.460 OA
ATOM     13  C   LIG d   1       3.311   0.877  -3.621  0.00  0.00     0.093 A 
ATOM     14  C   LIG d   1       3.539   1.166  -2.320  0.00  0.00    -0.023 A 
ATOM     15  H   LIG d   1       2.367   0.991  -4.133  0.00  0.00     0.103 H 
ATOM     16  C   LIG d   1       4.885   0.879  -2.059  0.00  0.00    -0.013 A 
ATOM     17  H   LIG d   1       2.817   1.546  -1.611  0.00  0.00     0.065 H 
ATOM     18  H   LIG d   1       5.401   0.994  -1.117  0.00  0.00     0.066 H 
ENDBRANCH   1  11
TORSDOF 4
ENDMDL
MODEL 7
REMARK VINA RESULT:      -3.8      2.560      4.071
REMARK  4 active torsions:
REMARK  status: ('A' for Active; 'I' for Inactive)
REMARK    1  A    between atoms: C_1  and  O_2 
REMARK    2  A    between atoms: O_2  and  C_3 
REMARK    3  A    between atoms: C_3  and  C_4 
REMARK    4  A    between atoms: C_4  and  C_6 
ROOT
ATOM      1  C   LIG d   1       4.421  -1.459  -4.479  0.00  0.00     0.223 C 
ATOM      2  O   LIG d   1       4.171  -1.274  -5.653  0.00  0.00    -0.286 OA
ENDROOT
BRANCH   1   3
ATOM      3  C   LIG d   1       4.807  -2.834  -3.999  0.00  0.00     0.113 C 
ATOM      4  H   LIG d   1       4.059  -3.473  -4.181  0.00  0.00     0.064 H 
ATOM      5  H   LIG d   1       5.006  -2.803  -2.928  0.00  0.00     0.064 H 
BRANCH   3   6
ATOM      6  O   LIG d   1       5.982  -3.267  -4.688  0.00  0.00    -0.375 OA
BRANCH   6   7
ATOM      7  C   LIG d   1       7.196  -2.721  -4.168  0.00  0.00     0.037 C 
ATOM      8  H   LIG d   1       6.964  -1.891  -3.500  0.00  0.00     0.052 H 
ATOM      9  H   LIG d   1       7.734  -3.492  -3.617  0.00  0.00     0.052 H 
ATOM     10  H   LIG d   1       7.815  -2.363  -4.991  0.00  0.00     0.052 H 
ENDBRANCH   6   7
ENDBRANCH   3   6
ENDBRANCH   1   3
BRANCH   1  11
ATOM     11  C   LIG d   1       4.349  -0.386  -3.564  0.00  0.00     0.172 A 
ATOM     12  O   LIG d   1       4.051   0.898  -3.862  0.00  0.00    -0.460 OA
ATOM     13  C   LIG d   1       4.071   1.631  -2.743  0.00  0.00     0.093 A 
ATOM     14  C   LIG d   1       4.394   0.835  -1.699  0.00  0.00    -0.023 A 
ATOM     15  H   LIG d   1       3.869   2.691  -2.685  0.00  0.00     0.103 H 
ATOM     16  C   LIG d   1       4.575  -0.459  -2.203  0.00  0.00    -0.013 A 
ATOM     17  H   LIG d   1       4.493   1.139  -0.666  0.00  0.00     0.065 H 
ATOM     18  H   LIG d   1       4.840  -1.342  -1.640  0.00  0.00     0.066 H 
ENDBRANCH   1  11
TORSDOF 4
ENDMDL
MODEL 8
REMARK VINA RESULT:      -3.6      2.704      3.369
REMARK  4 active torsions:
REMARK  status: ('A' for Active; 'I' for Inactive)
REMARK    1  A    between atoms: C_1  and  O_2 
REMARK    2  A    between atoms: O_2  and  C_3 
REMARK    3  A    between atoms: C_3  and  C_4 
REMARK    4  A    between atoms: C_4  and  C_6 
ROOT
ATOM      1  C   LIG d   1       6.759  -0.209  -4.455  0.00  0.00     0.223 C 
ATOM      2  O   LIG d   1       7.927  -0.442  -4.216  0.00  0.00    -0.286 OA
ENDROOT
BRANCH   1   3
ATOM      3  C   LIG d   1       6.295  -0.077  -5.883  0.00  0.00     0.113 C 
ATOM      4  H   LIG d   1       6.577  -0.885  -6.401  0.00  0.00     0.064 H 
ATOM      5  H   LIG d   1       6.739   0.813  -6.328  0.00  0.00     0.064 H 
BRANCH   3   6
ATOM      6  O   LIG d   1       4.870   0.035  -5.913  0.00  0.00    -0.375 OA
BRANCH   6   7
ATOM      7  C   LIG d   1       4.218  -1.025  -6.615  0.00  0.00     0.037 C 
ATOM      8  H   LIG d   1       4.853  -1.363  -7.434  0.00  0.00     0.052 H 
ATOM      9  H   LIG d   1       4.036  -1.854  -5.932  0.00  0.00     0.052 H 
ATOM     10  H   LIG d   1       3.270  -0.667  -7.015  0.00  0.00     0.052 H 
ENDBRANCH   6   7
ENDBRANCH   3   6
ENDBRANCH   1   3
BRANCH   1  11
ATOM     11  C   LIG d   1       5.836  -0.061  -3.396  0.00  0.00     0.172 A 
ATOM     12  O   LIG d   1       5.122  -1.051  -2.817  0.00  0.00    -0.460 OA
ATOM     13  C   LIG d   1       4.357  -0.539  -1.846  0.00  0.00     0.093 A 
ATOM     14  C   LIG d   1       4.556   0.798  -1.786  0.00  0.00    -0.023 A 
ATOM     15  H   LIG d   1       3.684  -1.102  -1.216  0.00  0.00     0.103 H 
ATOM     16  C   LIG d   1       5.499   1.122  -2.769  0.00  0.00    -0.013 A 
ATOM     17  H   LIG d   1       4.077   1.487  -1.105  0.00  0.00     0.065 H 
ATOM     18  H   LIG d   1       5.887   2.105  -2.994  0.00  0.00     0.066 H 
ENDBRANCH   1  11
TORSDOF 4
ENDMDL
MODEL 9
REMARK VINA RESULT:      -3.4     11.892     12.677
REMARK  4 active torsions:
REMARK  status: ('A' for Active; 'I' for Inactive)
REMARK    1  A    between atoms: C_1  and  O_2 
REMARK    2  A    between atoms: O_2  and  C_3 
REMARK    3  A    between atoms: C_3  and  C_4 
REMARK    4  A    between atoms: C_4  and  C_6 
ROOT
ATOM      1  C   LIG d   1      11.117   7.030   1.141  0.00  0.00     0.223 C 
ATOM      2  O   LIG d   1      11.260   6.149   1.965  0.00  0.00    -0.286 OA
ENDROOT
BRANCH   1   3
ATOM      3  C   LIG d   1      11.521   8.444   1.474  0.00  0.00     0.113 C 
ATOM      4  H   LIG d   1      10.759   9.062   1.280  0.00  0.00     0.064 H 
ATOM      5  H   LIG d   1      12.381   8.727   0.868  0.00  0.00     0.064 H 
BRANCH   3   6
ATOM      6  O   LIG d   1      11.865   8.528   2.858  0.00  0.00    -0.375 OA
BRANCH   6   7
ATOM      7  C   LIG d   1      12.458   9.772   3.235  0.00  0.00     0.037 C 
ATOM      8  H   LIG d   1      11.891  10.211   4.057  0.00  0.00     0.052 H 
ATOM      9  H   LIG d   1      13.486   9.602   3.554  0.00  0.00     0.052 H 
ATOM     10  H   LIG d   1      12.448  10.453   2.384  0.00  0.00     0.052 H 
ENDBRANCH   6   7
ENDBRANCH   3   6
ENDBRANCH   1   3
BRANCH   1  11
ATOM     11  C   LIG d   1      10.572   6.731  -0.127  0.00  0.00     0.172 A 
ATOM     12  O   LIG d   1       9.603   7.426  -0.762  0.00  0.00    -0.460 OA
ATOM     13  C   LIG d   1       9.346   6.853  -1.944  0.00  0.00     0.093 A 
ATOM     14  C   LIG d   1      10.139   5.767  -2.090  0.00  0.00    -0.023 A 
ATOM     15  H   LIG d   1       8.617   7.199  -2.662  0.00  0.00     0.103 H 
ATOM     16  C   LIG d   1      10.931   5.673  -0.939  0.00  0.00    -0.013 A 
ATOM     17  H   LIG d   1      10.159   5.097  -2.938  0.00  0.00     0.065 H 
ATOM     18  H   LIG d   1      11.676   4.920  -0.726  0.00  0.00     0.066 H 
ENDBRANCH   1  11
TORSDOF 4
ENDMDL
