MODEL 1
REMARK VINA RESULT:      -7.1      0.000      0.000
REMARK  8 active torsions:
REMARK  status: ('A' for Active; 'I' for Inactive)
REMARK    1  A    between atoms: C_1  and  N_2 
REMARK    2  A    between atoms: N_2  and  C_3 
REMARK    3  A    between atoms: N_2  and  C_4 
REMARK    4  A    between atoms: C_8  and  O_10 
REMARK    5  A    between atoms: O_10  and  C_11 
REMARK    6  A    between atoms: N_15  and  C_16 
REMARK    7  A    between atoms: C_26  and  N_28 
REMARK       I    between atoms: N_28  and  C_29 
REMARK    8  A    between atoms: C_29  and  C_31 
ROOT
ATOM      1  C   LIG d   1      10.760   4.427  -4.232  0.00  0.00     0.111 C 
ATOM      2  H   LIG d   1      11.414   4.586  -5.090  0.00  0.00     0.060 H 
ATOM      3  C   LIG d   1      11.414   3.464  -3.227  0.00  0.00     0.073 C 
ATOM      4  O   LIG d   1      10.433   2.510  -2.822  0.00  0.00    -0.370 OA
ATOM      5  C   LIG d   1       9.181   2.753  -3.470  0.00  0.00     0.107 C 
ATOM      6  H   LIG d   1       8.433   3.153  -2.784  0.00  0.00     0.064 H 
ATOM      7  C   LIG d   1       9.471   3.701  -4.664  0.00  0.00     0.111 C 
ATOM      8  H   LIG d   1       8.650   4.387  -4.869  0.00  0.00     0.065 H 
ATOM      9  O   LIG d   1       9.763   2.819  -5.766  0.00  0.00    -0.370 OA
ATOM     10  C   LIG d   1       8.799   1.749  -5.659  0.00  0.00     0.069 C 
ATOM     11  C   LIG d   1       8.713   1.444  -4.148  0.00  0.00     0.075 C 
ATOM     12  H   LIG d   1       9.377   0.620  -3.885  0.00  0.00     0.055 H 
ATOM     13  H   LIG d   1      12.252   2.952  -3.701  0.00  0.00     0.058 H 
ATOM     14  H   LIG d   1      11.766   4.022  -2.359  0.00  0.00     0.058 H 
ATOM     15  H   LIG d   1       9.145   0.870  -6.204  0.00  0.00     0.058 H 
ATOM     16  H   LIG d   1       7.829   2.073  -6.037  0.00  0.00     0.058 H 
ENDROOT
BRANCH   1  17
ATOM     17  N   LIG d   1      10.442   5.704  -3.587  0.00  0.00    -0.187 N 
ATOM     18  C   LIG d   1      10.705   6.945  -4.052  0.00  0.00     0.342 A 
ATOM     19  N   LIG d   1      10.247   7.796  -3.163  0.00  0.00    -0.070 NA
ATOM     20  N   LIG d   1       9.725   7.173  -2.168  0.00  0.00    -0.020 NA
ATOM     21  N   LIG d   1       9.804   5.899  -2.350  0.00  0.00    -0.041 NA
BRANCH  18  22
ATOM     22  O   LIG d   1      11.320   7.254  -5.218  0.00  0.00    -0.423 OA
BRANCH  22  23
ATOM     23  C   LIG d   1      10.541   7.507  -6.303  0.00  0.00     0.134 A 
ATOM     24  C   LIG d   1      10.010   8.774  -6.496  0.00  0.00    -0.019 A 
ATOM     25  C   LIG d   1       9.218   9.034  -7.599  0.00  0.00    -0.057 A 
ATOM     26  H   LIG d   1      10.216   9.560  -5.783  0.00  0.00     0.065 H 
ATOM     27  C   LIG d   1       8.952   8.032  -8.512  0.00  0.00    -0.040 A 
ATOM     28  H   LIG d   1       8.806  10.021  -7.746  0.00  0.00     0.062 H 
ATOM     29  C   LIG d   1       9.481   6.760  -8.324  0.00  0.00     0.033 A 
ATOM     30  H   LIG d   1       8.333   8.237  -9.373  0.00  0.00     0.064 H 
ATOM     31  C   LIG d   1      10.280   6.500  -7.220  0.00  0.00     0.002 A 
ATOM     32  H   LIG d   1      10.697   5.514  -7.073  0.00  0.00     0.067 H 
BRANCH  29  33
ATOM     33  N   LIG d   1       9.212   5.748  -9.247  0.00  0.00    -0.336 N 
BRANCH  33  34
ATOM     34  C   LIG d   1       9.091   4.359  -8.798  0.00  0.00     0.000 C 
ATOM     35  H   LIG d   1       9.519   3.696  -9.550  0.00  0.00     0.043 H 
ATOM     36  H   LIG d   1       9.625   4.233  -7.856  0.00  0.00     0.043 H 
ATOM     37  H   LIG d   1       8.039   4.114  -8.653  0.00  0.00     0.043 H 
ENDBRANCH  33  34
BRANCH  33  38
ATOM     38  C   LIG d   1       9.052   6.076 -10.666  0.00  0.00     0.000 C 
ATOM     39  H   LIG d   1       8.086   6.555 -10.823  0.00  0.00     0.043 H 
ATOM     40  H   LIG d   1       9.848   6.754 -10.975  0.00  0.00     0.043 H 
ATOM     41  H   LIG d   1       9.106   5.162 -11.258  0.00  0.00     0.043 H 
ENDBRANCH  33  38
ENDBRANCH  29  33
ENDBRANCH  22  23
ENDBRANCH  18  22
ENDBRANCH   1  17
BRANCH  11  42
ATOM     42  N   LIG d   1       7.334   1.132  -3.765  0.00  0.00    -0.304 N 
ATOM     43  C   LIG d   1       6.935  -0.151  -3.666  0.00  0.00     0.244 C 
ATOM     44  O   LIG d   1       7.721  -1.050  -3.894  0.00  0.00    -0.270 OA
ATOM     45  H   LIG d   1       6.707   1.850  -3.583  0.00  0.00     0.149 HD
BRANCH  43  46
ATOM     46  C   LIG d   1       5.543  -0.466  -3.280  0.00  0.00     0.037 A 
ATOM     47  C   LIG d   1       5.159  -1.789  -3.061  0.00  0.00    -0.050 A 
ATOM     48  C   LIG d   1       3.858  -2.076  -2.700  0.00  0.00    -0.061 A 
ATOM     49  H   LIG d   1       5.878  -2.588  -3.175  0.00  0.00     0.062 H 
ATOM     50  C   LIG d   1       2.937  -1.054  -2.555  0.00  0.00    -0.062 A 
ATOM     51  H   LIG d   1       3.559  -3.100  -2.532  0.00  0.00     0.062 H 
ATOM     52  C   LIG d   1       3.312   0.260  -2.770  0.00  0.00    -0.061 A 
ATOM     53  H   LIG d   1       1.920  -1.284  -2.272  0.00  0.00     0.062 H 
ATOM     54  C   LIG d   1       4.610   0.560  -3.127  0.00  0.00    -0.050 A 
ATOM     55  H   LIG d   1       2.587   1.053  -2.656  0.00  0.00     0.062 H 
ATOM     56  H   LIG d   1       4.902   1.587  -3.290  0.00  0.00     0.062 H 
ENDBRANCH  43  46
ENDBRANCH  11  42
TORSDOF 8
ENDMDL
MODEL 2
REMARK VINA RESULT:      -7.1      2.812      3.964
REMARK  8 active torsions:
REMARK  status: ('A' for Active; 'I' for Inactive)
REMARK    1  A    between atoms: C_1  and  N_2 
REMARK    2  A    between atoms: N_2  and  C_3 
REMARK    3  A    between atoms: N_2  and  C_4 
REMARK    4  A    between atoms: C_8  and  O_10 
REMARK    5  A    between atoms: O_10  and  C_11 
REMARK    6  A    between atoms: N_15  and  C_16 
REMARK    7  A    between atoms: C_26  and  N_28 
REMARK       I    between atoms: N_28  and  C_29 
REMARK    8  A    between atoms: C_29  and  C_31 
ROOT
ATOM      1  C   LIG d   1      11.817   4.836  -3.282  0.00  0.00     0.111 C 
ATOM      2  H   LIG d   1      12.139   5.538  -4.051  0.00  0.00     0.060 H 
ATOM      3  C   LIG d   1      12.543   3.490  -3.441  0.00  0.00     0.073 C 
ATOM      4  O   LIG d   1      11.577   2.446  -3.316  0.00  0.00    -0.370 OA
ATOM      5  C   LIG d   1      10.270   2.980  -3.086  0.00  0.00     0.107 C 
ATOM      6  H   LIG d   1       9.931   2.813  -2.063  0.00  0.00     0.064 H 
ATOM      7  C   LIG d   1      10.328   4.484  -3.463  0.00  0.00     0.111 C 
ATOM      8  H   LIG d   1       9.672   5.100  -2.849  0.00  0.00     0.065 H 
ATOM      9  O   LIG d   1       9.994   4.520  -4.865  0.00  0.00    -0.370 OA
ATOM     10  C   LIG d   1       8.910   3.577  -5.020  0.00  0.00     0.069 C 
ATOM     11  C   LIG d   1       9.301   2.378  -4.130  0.00  0.00     0.075 C 
ATOM     12  H   LIG d   1       9.803   1.610  -4.719  0.00  0.00     0.055 H 
ATOM     13  H   LIG d   1      13.013   3.440  -4.424  0.00  0.00     0.058 H 
ATOM     14  H   LIG d   1      13.300   3.386  -2.665  0.00  0.00     0.058 H 
ATOM     15  H   LIG d   1       8.824   3.265  -6.061  0.00  0.00     0.058 H 
ATOM     16  H   LIG d   1       7.973   4.017  -4.676  0.00  0.00     0.058 H 
ENDROOT
BRANCH   1  17
ATOM     17  N   LIG d   1      12.056   5.393  -1.947  0.00  0.00    -0.187 N 
ATOM     18  C   LIG d   1      11.216   6.159  -1.216  0.00  0.00     0.342 A 
ATOM     19  N   LIG d   1      11.827   6.432  -0.086  0.00  0.00    -0.070 NA
ATOM     20  N   LIG d   1      12.995   5.899  -0.064  0.00  0.00    -0.020 NA
ATOM     21  N   LIG d   1      13.210   5.251  -1.158  0.00  0.00    -0.041 NA
BRANCH  18  22
ATOM     22  O   LIG d   1       9.976   6.565  -1.578  0.00  0.00    -0.423 OA
BRANCH  22  23
ATOM     23  C   LIG d   1       9.769   7.895  -1.764  0.00  0.00     0.134 A 
ATOM     24  C   LIG d   1       9.093   8.633  -0.803  0.00  0.00    -0.019 A 
ATOM     25  C   LIG d   1       8.882   9.987  -0.990  0.00  0.00    -0.057 A 
ATOM     26  H   LIG d   1       8.732   8.150   0.093  0.00  0.00     0.065 H 
ATOM     27  C   LIG d   1       9.342  10.608  -2.136  0.00  0.00    -0.040 A 
ATOM     28  H   LIG d   1       8.357  10.559  -0.241  0.00  0.00     0.062 H 
ATOM     29  C   LIG d   1      10.019   9.873  -3.102  0.00  0.00     0.033 A 
ATOM     30  H   LIG d   1       9.176  11.665  -2.280  0.00  0.00     0.064 H 
ATOM     31  C   LIG d   1      10.236   8.516  -2.913  0.00  0.00     0.002 A 
ATOM     32  H   LIG d   1      10.766   7.943  -3.660  0.00  0.00     0.067 H 
BRANCH  29  33
ATOM     33  N   LIG d   1      10.484  10.501  -4.259  0.00  0.00    -0.336 N 
BRANCH  33  34
ATOM     34  C   LIG d   1      11.924  10.651  -4.484  0.00  0.00     0.000 C 
ATOM     35  H   LIG d   1      12.090  11.236  -5.389  0.00  0.00     0.043 H 
ATOM     36  H   LIG d   1      12.373  11.164  -3.634  0.00  0.00     0.043 H 
ATOM     37  H   LIG d   1      12.379   9.668  -4.597  0.00  0.00     0.043 H 
ENDBRANCH  33  34
BRANCH  33  38
ATOM     38  C   LIG d   1       9.531  11.012  -5.248  0.00  0.00     0.000 C 
ATOM     39  H   LIG d   1       9.644  10.461  -6.182  0.00  0.00     0.043 H 
ATOM     40  H   LIG d   1       8.514  10.885  -4.873  0.00  0.00     0.043 H 
ATOM     41  H   LIG d   1       9.723  12.070  -5.424  0.00  0.00     0.043 H 
ENDBRANCH  33  38
ENDBRANCH  29  33
ENDBRANCH  22  23
ENDBRANCH  18  22
ENDBRANCH   1  17
BRANCH  11  42
ATOM     42  N   LIG d   1       8.116   1.823  -3.470  0.00  0.00    -0.304 N 
ATOM     43  C   LIG d   1       7.554   0.690  -3.935  0.00  0.00     0.244 C 
ATOM     44  O   LIG d   1       8.030   0.129  -4.902  0.00  0.00    -0.270 OA
ATOM     45  H   LIG d   1       7.737   2.271  -2.697  0.00  0.00     0.149 HD
BRANCH  43  46
ATOM     46  C   LIG d   1       6.359   0.129  -3.269  0.00  0.00     0.037 A 
ATOM     47  C   LIG d   1       5.462   0.973  -2.612  0.00  0.00    -0.050 A 
ATOM     48  C   LIG d   1       4.349   0.444  -1.993  0.00  0.00    -0.061 A 
ATOM     49  H   LIG d   1       5.641   2.038  -2.587  0.00  0.00     0.062 H 
ATOM     50  C   LIG d   1       4.121  -0.921  -2.023  0.00  0.00    -0.062 A 
ATOM     51  H   LIG d   1       3.655   1.095  -1.483  0.00  0.00     0.062 H 
ATOM     52  C   LIG d   1       5.005  -1.763  -2.674  0.00  0.00    -0.061 A 
ATOM     53  H   LIG d   1       3.247  -1.330  -1.538  0.00  0.00     0.062 H 
ATOM     54  C   LIG d   1       6.120  -1.245  -3.301  0.00  0.00    -0.050 A 
ATOM     55  H   LIG d   1       4.821  -2.827  -2.694  0.00  0.00     0.062 H 
ATOM     56  H   LIG d   1       6.807  -1.903  -3.812  0.00  0.00     0.062 H 
ENDBRANCH  43  46
ENDBRANCH  11  42
TORSDOF 8
ENDMDL
MODEL 3
REMARK VINA RESULT:      -7.0      1.797      2.821
REMARK  8 active torsions:
REMARK  status: ('A' for Active; 'I' for Inactive)
REMARK    1  A    between atoms: C_1  and  N_2 
REMARK    2  A    between atoms: N_2  and  C_3 
REMARK    3  A    between atoms: N_2  and  C_4 
REMARK    4  A    between atoms: C_8  and  O_10 
REMARK    5  A    between atoms: O_10  and  C_11 
REMARK    6  A    between atoms: N_15  and  C_16 
REMARK    7  A    between atoms: C_26  and  N_28 
REMARK       I    between atoms: N_28  and  C_29 
REMARK    8  A    between atoms: C_29  and  C_31 
ROOT
ATOM      1  C   LIG d   1      11.054   4.414  -3.866  0.00  0.00     0.111 C 
ATOM      2  H   LIG d   1      11.568   4.824  -4.735  0.00  0.00     0.060 H 
ATOM      3  C   LIG d   1      11.794   3.174  -3.336  0.00  0.00     0.073 C 
ATOM      4  O   LIG d   1      10.827   2.157  -3.075  0.00  0.00    -0.370 OA
ATOM      5  C   LIG d   1       9.507   2.611  -3.384  0.00  0.00     0.107 C 
ATOM      6  H   LIG d   1       8.912   2.788  -2.487  0.00  0.00     0.064 H 
ATOM      7  C   LIG d   1       9.664   3.881  -4.262  0.00  0.00     0.111 C 
ATOM      8  H   LIG d   1       8.871   4.610  -4.098  0.00  0.00     0.065 H 
ATOM      9  O   LIG d   1       9.708   3.385  -5.615  0.00  0.00    -0.370 OA
ATOM     10  C   LIG d   1       8.701   2.350  -5.671  0.00  0.00     0.069 C 
ATOM     11  C   LIG d   1       8.843   1.588  -4.336  0.00  0.00     0.075 C 
ATOM     12  H   LIG d   1       9.481   0.713  -4.460  0.00  0.00     0.055 H 
ATOM     13  H   LIG d   1      12.505   2.823  -4.085  0.00  0.00     0.058 H 
ATOM     14  H   LIG d   1      12.322   3.426  -2.416  0.00  0.00     0.058 H 
ATOM     15  H   LIG d   1       8.890   1.682  -6.512  0.00  0.00     0.058 H 
ATOM     16  H   LIG d   1       7.708   2.793  -5.753  0.00  0.00     0.058 H 
ENDROOT
BRANCH   1  17
ATOM     17  N   LIG d   1      10.937   5.429  -2.815  0.00  0.00    -0.187 N 
ATOM     18  C   LIG d   1      11.308   6.727  -2.884  0.00  0.00     0.342 A 
ATOM     19  N   LIG d   1      11.021   7.273  -1.725  0.00  0.00    -0.070 NA
ATOM     20  N   LIG d   1      10.507   6.404  -0.931  0.00  0.00    -0.020 NA
ATOM     21  N   LIG d   1      10.422   5.259  -1.518  0.00  0.00    -0.041 NA
BRANCH  18  22
ATOM     22  O   LIG d   1      11.865   7.349  -3.950  0.00  0.00    -0.423 OA
BRANCH  22  23
ATOM     23  C   LIG d   1      11.039   7.991  -4.818  0.00  0.00     0.134 A 
ATOM     24  C   LIG d   1      10.578   7.336  -5.951  0.00  0.00    -0.019 A 
ATOM     25  C   LIG d   1       9.737   7.987  -6.834  0.00  0.00    -0.057 A 
ATOM     26  H   LIG d   1      10.876   6.316  -6.143  0.00  0.00     0.065 H 
ATOM     27  C   LIG d   1       9.354   9.293  -6.592  0.00  0.00    -0.040 A 
ATOM     28  H   LIG d   1       9.380   7.475  -7.715  0.00  0.00     0.062 H 
ATOM     29  C   LIG d   1       9.813   9.954  -5.458  0.00  0.00     0.033 A 
ATOM     30  H   LIG d   1       8.697   9.799  -7.283  0.00  0.00     0.064 H 
ATOM     31  C   LIG d   1      10.653   9.300  -4.568  0.00  0.00     0.002 A 
ATOM     32  H   LIG d   1      11.007   9.809  -3.684  0.00  0.00     0.067 H 
BRANCH  29  33
ATOM     33  N   LIG d   1       9.426  11.272  -5.214  0.00  0.00    -0.336 N 
BRANCH  33  34
ATOM     34  C   LIG d   1       9.625  12.298  -6.242  0.00  0.00     0.000 C 
ATOM     35  H   LIG d   1       9.790  11.816  -7.206  0.00  0.00     0.043 H 
ATOM     36  H   LIG d   1       8.740  12.931  -6.299  0.00  0.00     0.043 H 
ATOM     37  H   LIG d   1      10.491  12.906  -5.985  0.00  0.00     0.043 H 
ENDBRANCH  33  34
BRANCH  33  38
ATOM     38  C   LIG d   1       8.821  11.632  -3.928  0.00  0.00     0.000 C 
ATOM     39  H   LIG d   1       8.383  12.627  -3.998  0.00  0.00     0.043 H 
ATOM     40  H   LIG d   1       8.044  10.909  -3.677  0.00  0.00     0.043 H 
ATOM     41  H   LIG d   1       9.586  11.624  -3.153  0.00  0.00     0.043 H 
ENDBRANCH  33  38
ENDBRANCH  29  33
ENDBRANCH  22  23
ENDBRANCH  18  22
ENDBRANCH   1  17
BRANCH  11  42
ATOM     42  N   LIG d   1       7.527   1.195  -3.828  0.00  0.00    -0.304 N 
ATOM     43  C   LIG d   1       7.152  -0.099  -3.857  0.00  0.00     0.244 C 
ATOM     44  O   LIG d   1       7.907  -0.940  -4.305  0.00  0.00    -0.270 OA
ATOM     45  H   LIG d   1       6.924   1.866  -3.471  0.00  0.00     0.149 HD
BRANCH  43  46
ATOM     46  C   LIG d   1       5.823  -0.497  -3.345  0.00  0.00     0.037 A 
ATOM     47  C   LIG d   1       5.424  -1.833  -3.395  0.00  0.00    -0.050 A 
ATOM     48  C   LIG d   1       4.183  -2.198  -2.915  0.00  0.00    -0.061 A 
ATOM     49  H   LIG d   1       6.084  -2.580  -3.810  0.00  0.00     0.062 H 
ATOM     50  C   LIG d   1       3.336  -1.241  -2.384  0.00  0.00    -0.062 A 
ATOM     51  H   LIG d   1       3.872  -3.231  -2.954  0.00  0.00     0.062 H 
ATOM     52  C   LIG d   1       3.726   0.085  -2.330  0.00  0.00    -0.061 A 
ATOM     53  H   LIG d   1       2.365  -1.531  -2.009  0.00  0.00     0.062 H 
ATOM     54  C   LIG d   1       4.967   0.462  -2.803  0.00  0.00    -0.050 A 
ATOM     55  H   LIG d   1       3.060   0.827  -1.915  0.00  0.00     0.062 H 
ATOM     56  H   LIG d   1       5.271   1.496  -2.757  0.00  0.00     0.062 H 
ENDBRANCH  43  46
ENDBRANCH  11  42
TORSDOF 8
ENDMDL
MODEL 4
REMARK VINA RESULT:      -6.9      8.288     13.407
REMARK  8 active torsions:
REMARK  status: ('A' for Active; 'I' for Inactive)
REMARK    1  A    between atoms: C_1  and  N_2 
REMARK    2  A    between atoms: N_2  and  C_3 
REMARK    3  A    between atoms: N_2  and  C_4 
REMARK    4  A    between atoms: C_8  and  O_10 
REMARK    5  A    between atoms: O_10  and  C_11 
REMARK    6  A    between atoms: N_15  and  C_16 
REMARK    7  A    between atoms: C_26  and  N_28 
REMARK       I    between atoms: N_28  and  C_29 
REMARK    8  A    between atoms: C_29  and  C_31 
ROOT
ATOM      1  C   LIG d   1       5.678  -8.232  -5.929  0.00  0.00     0.111 C 
ATOM      2  H   LIG d   1       6.512  -8.636  -6.502  0.00  0.00     0.060 H 
ATOM      3  C   LIG d   1       4.487  -7.926  -6.852  0.00  0.00     0.073 C 
ATOM      4  O   LIG d   1       3.979  -6.636  -6.511  0.00  0.00    -0.370 OA
ATOM      5  C   LIG d   1       4.727  -6.056  -5.440  0.00  0.00     0.107 C 
ATOM      6  H   LIG d   1       4.163  -6.036  -4.507  0.00  0.00     0.064 H 
ATOM      7  C   LIG d   1       6.049  -6.862  -5.328  0.00  0.00     0.111 C 
ATOM      8  H   LIG d   1       6.415  -6.937  -4.305  0.00  0.00     0.065 H 
ATOM      9  O   LIG d   1       6.965  -6.184  -6.211  0.00  0.00    -0.370 OA
ATOM     10  C   LIG d   1       6.729  -4.775  -5.990  0.00  0.00     0.069 C 
ATOM     11  C   LIG d   1       5.195  -4.646  -5.871  0.00  0.00     0.075 C 
ATOM     12  H   LIG d   1       4.757  -4.377  -6.833  0.00  0.00     0.055 H 
ATOM     13  H   LIG d   1       4.818  -7.928  -7.891  0.00  0.00     0.058 H 
ATOM     14  H   LIG d   1       3.710  -8.677  -6.712  0.00  0.00     0.058 H 
ATOM     15  H   LIG d   1       7.095  -4.192  -6.835  0.00  0.00     0.058 H 
ATOM     16  H   LIG d   1       7.210  -4.451  -5.067  0.00  0.00     0.058 H 
ENDROOT
BRANCH   1  17
ATOM     17  N   LIG d   1       5.281  -9.168  -4.873  0.00  0.00    -0.187 N 
ATOM     18  C   LIG d   1       6.083  -9.994  -4.165  0.00  0.00     0.342 A 
ATOM     19  N   LIG d   1       5.318 -10.650  -3.324  0.00  0.00    -0.070 NA
ATOM     20  N   LIG d   1       4.090 -10.299  -3.463  0.00  0.00    -0.020 NA
ATOM     21  N   LIG d   1       3.984  -9.403  -4.384  0.00  0.00    -0.041 NA
BRANCH  18  22
ATOM     22  O   LIG d   1       7.425 -10.118  -4.296  0.00  0.00    -0.423 OA
BRANCH  22  23
ATOM     23  C   LIG d   1       8.215  -9.504  -3.376  0.00  0.00     0.134 A 
ATOM     24  C   LIG d   1       8.634  -8.198  -3.582  0.00  0.00    -0.019 A 
ATOM     25  C   LIG d   1       9.438  -7.572  -2.647  0.00  0.00    -0.057 A 
ATOM     26  H   LIG d   1       8.332  -7.669  -4.475  0.00  0.00     0.065 H 
ATOM     27  C   LIG d   1       9.826  -8.245  -1.505  0.00  0.00    -0.040 A 
ATOM     28  H   LIG d   1       9.762  -6.555  -2.810  0.00  0.00     0.062 H 
ATOM     29  C   LIG d   1       9.409  -9.554  -1.294  0.00  0.00     0.033 A 
ATOM     30  H   LIG d   1      10.453  -7.754  -0.776  0.00  0.00     0.064 H 
ATOM     31  C   LIG d   1       8.599 -10.183  -2.229  0.00  0.00     0.002 A 
ATOM     32  H   LIG d   1       8.270 -11.198  -2.065  0.00  0.00     0.067 H 
BRANCH  29  33
ATOM     33  N   LIG d   1       9.802 -10.234  -0.139  0.00  0.00    -0.336 N 
BRANCH  33  34
ATOM     34  C   LIG d   1      10.647  -9.565   0.854  0.00  0.00     0.000 C 
ATOM     35  H   LIG d   1      11.561 -10.141   0.998  0.00  0.00     0.043 H 
ATOM     36  H   LIG d   1      10.898  -8.565   0.503  0.00  0.00     0.043 H 
ATOM     37  H   LIG d   1      10.109  -9.494   1.799  0.00  0.00     0.043 H 
ENDBRANCH  33  34
BRANCH  33  38
ATOM     38  C   LIG d   1       9.371 -11.618   0.078  0.00  0.00     0.000 C 
ATOM     39  H   LIG d   1       9.618 -11.920   1.096  0.00  0.00     0.043 H 
ATOM     40  H   LIG d   1       8.294 -11.691  -0.072  0.00  0.00     0.043 H 
ATOM     41  H   LIG d   1       9.881 -12.272  -0.629  0.00  0.00     0.043 H 
ENDBRANCH  33  38
ENDBRANCH  29  33
ENDBRANCH  22  23
ENDBRANCH  18  22
ENDBRANCH   1  17
BRANCH  11  42
ATOM     42  N   LIG d   1       4.842  -3.654  -4.852  0.00  0.00    -0.304 N 
ATOM     43  C   LIG d   1       4.628  -2.372  -5.206  0.00  0.00     0.244 C 
ATOM     44  O   LIG d   1       4.728  -2.038  -6.370  0.00  0.00    -0.270 OA
ATOM     45  H   LIG d   1       4.762  -3.921  -3.923  0.00  0.00     0.149 HD
BRANCH  43  46
ATOM     46  C   LIG d   1       4.272  -1.371  -4.178  0.00  0.00     0.037 A 
ATOM     47  C   LIG d   1       4.631  -1.576  -2.845  0.00  0.00    -0.050 A 
ATOM     48  C   LIG d   1       4.296  -0.638  -1.890  0.00  0.00    -0.061 A 
ATOM     49  H   LIG d   1       5.169  -2.469  -2.561  0.00  0.00     0.062 H 
ATOM     50  C   LIG d   1       3.606   0.505  -2.253  0.00  0.00    -0.062 A 
ATOM     51  H   LIG d   1       4.572  -0.796  -0.859  0.00  0.00     0.062 H 
ATOM     52  C   LIG d   1       3.248   0.716  -3.573  0.00  0.00    -0.061 A 
ATOM     53  H   LIG d   1       3.346   1.237  -1.502  0.00  0.00     0.062 H 
ATOM     54  C   LIG d   1       3.581  -0.213  -4.538  0.00  0.00    -0.050 A 
ATOM     55  H   LIG d   1       2.709   1.610  -3.849  0.00  0.00     0.062 H 
ATOM     56  H   LIG d   1       3.305  -0.045  -5.567  0.00  0.00     0.062 H 
ENDBRANCH  43  46
ENDBRANCH  11  42
TORSDOF 8
ENDMDL
MODEL 5
REMARK VINA RESULT:      -6.6      6.813      8.765
REMARK  8 active torsions:
REMARK  status: ('A' for Active; 'I' for Inactive)
REMARK    1  A    between atoms: C_1  and  N_2 
REMARK    2  A    between atoms: N_2  and  C_3 
REMARK    3  A    between atoms: N_2  and  C_4 
REMARK    4  A    between atoms: C_8  and  O_10 
REMARK    5  A    between atoms: O_10  and  C_11 
REMARK    6  A    between atoms: N_15  and  C_16 
REMARK    7  A    between atoms: C_26  and  N_28 
REMARK       I    between atoms: N_28  and  C_29 
REMARK    8  A    between atoms: C_29  and  C_31 
ROOT
ATOM      1  C   LIG d   1       5.281  -1.193  -6.996  0.00  0.00     0.111 C 
ATOM      2  H   LIG d   1       5.158  -0.764  -7.990  0.00  0.00     0.060 H 
ATOM      3  C   LIG d   1       6.768  -1.232  -6.605  0.00  0.00     0.073 C 
ATOM      4  O   LIG d   1       7.047  -2.516  -6.047  0.00  0.00    -0.370 OA
ATOM      5  C   LIG d   1       5.876  -3.336  -6.031  0.00  0.00     0.107 C 
ATOM      6  H   LIG d   1       5.483  -3.474  -5.023  0.00  0.00     0.064 H 
ATOM      7  C   LIG d   1       4.852  -2.673  -6.991  0.00  0.00     0.111 C 
ATOM      8  H   LIG d   1       3.820  -2.811  -6.670  0.00  0.00     0.065 H 
ATOM      9  O   LIG d   1       5.130  -3.257  -8.279  0.00  0.00    -0.370 OA
ATOM     10  C   LIG d   1       5.365  -4.658  -8.016  0.00  0.00     0.069 C 
ATOM     11  C   LIG d   1       6.205  -4.681  -6.720  0.00  0.00     0.075 C 
ATOM     12  H   LIG d   1       7.269  -4.739  -6.954  0.00  0.00     0.055 H 
ATOM     13  H   LIG d   1       7.385  -1.073  -7.490  0.00  0.00     0.058 H 
ATOM     14  H   LIG d   1       6.975  -0.457  -5.867  0.00  0.00     0.058 H 
ATOM     15  H   LIG d   1       5.921  -5.111  -8.837  0.00  0.00     0.058 H 
ATOM     16  H   LIG d   1       4.419  -5.179  -7.864  0.00  0.00     0.058 H 
ENDROOT
BRANCH   1  17
ATOM     17  N   LIG d   1       4.511  -0.429  -6.010  0.00  0.00    -0.187 N 
ATOM     18  C   LIG d   1       3.254   0.049  -6.143  0.00  0.00     0.342 A 
ATOM     19  N   LIG d   1       2.954   0.666  -5.023  0.00  0.00    -0.070 NA
ATOM     20  N   LIG d   1       3.941   0.616  -4.202  0.00  0.00    -0.020 NA
ATOM     21  N   LIG d   1       4.924  -0.032  -4.726  0.00  0.00    -0.041 NA
BRANCH  18  22
ATOM     22  O   LIG d   1       2.452  -0.086  -7.226  0.00  0.00    -0.423 OA
BRANCH  22  23
ATOM     23  C   LIG d   1       2.867   0.461  -8.399  0.00  0.00     0.134 A 
ATOM     24  C   LIG d   1       3.258   1.791  -8.445  0.00  0.00    -0.019 A 
ATOM     25  C   LIG d   1       3.681   2.349  -9.637  0.00  0.00    -0.057 A 
ATOM     26  H   LIG d   1       3.232   2.392  -7.548  0.00  0.00     0.065 H 
ATOM     27  C   LIG d   1       3.714   1.583 -10.787  0.00  0.00    -0.040 A 
ATOM     28  H   LIG d   1       3.985   3.384  -9.670  0.00  0.00     0.062 H 
ATOM     29  C   LIG d   1       3.323   0.250 -10.747  0.00  0.00     0.033 A 
ATOM     30  H   LIG d   1       4.045   2.021 -11.717  0.00  0.00     0.064 H 
ATOM     31  C   LIG d   1       2.903  -0.313  -9.550  0.00  0.00     0.002 A 
ATOM     32  H   LIG d   1       2.604  -1.350  -9.514  0.00  0.00     0.067 H 
BRANCH  29  33
ATOM     33  N   LIG d   1       3.357  -0.523 -11.909  0.00  0.00    -0.336 N 
BRANCH  33  34
ATOM     34  C   LIG d   1       4.530  -0.476 -12.787  0.00  0.00     0.000 C 
ATOM     35  H   LIG d   1       5.404  -0.180 -12.207  0.00  0.00     0.043 H 
ATOM     36  H   LIG d   1       4.698  -1.461 -13.221  0.00  0.00     0.043 H 
ATOM     37  H   LIG d   1       4.359   0.247 -13.583  0.00  0.00     0.043 H 
ENDBRANCH  33  34
BRANCH  33  38
ATOM     38  C   LIG d   1       2.219  -1.381 -12.252  0.00  0.00     0.000 C 
ATOM     39  H   LIG d   1       1.352  -0.761 -12.479  0.00  0.00     0.043 H 
ATOM     40  H   LIG d   1       2.471  -1.988 -13.122  0.00  0.00     0.043 H 
ATOM     41  H   LIG d   1       1.989  -2.032 -11.409  0.00  0.00     0.043 H 
ENDBRANCH  33  38
ENDBRANCH  29  33
ENDBRANCH  22  23
ENDBRANCH  18  22
ENDBRANCH   1  17
BRANCH  11  42
ATOM     42  N   LIG d   1       5.806  -5.804  -5.870  0.00  0.00    -0.304 N 
ATOM     43  C   LIG d   1       6.533  -6.939  -5.865  0.00  0.00     0.244 C 
ATOM     44  O   LIG d   1       7.521  -7.029  -6.567  0.00  0.00    -0.270 OA
ATOM     45  H   LIG d   1       5.017  -5.732  -5.309  0.00  0.00     0.149 HD
BRANCH  43  46
ATOM     46  C   LIG d   1       6.130  -8.073  -5.007  0.00  0.00     0.037 A 
ATOM     47  C   LIG d   1       4.817  -8.544  -5.039  0.00  0.00    -0.050 A 
ATOM     48  C   LIG d   1       4.448  -9.604  -4.236  0.00  0.00    -0.061 A 
ATOM     49  H   LIG d   1       4.091  -8.080  -5.690  0.00  0.00     0.062 H 
ATOM     50  C   LIG d   1       5.377 -10.198  -3.401  0.00  0.00    -0.062 A 
ATOM     51  H   LIG d   1       3.432  -9.968  -4.258  0.00  0.00     0.062 H 
ATOM     52  C   LIG d   1       6.681  -9.737  -3.365  0.00  0.00    -0.061 A 
ATOM     53  H   LIG d   1       5.083 -11.028  -2.774  0.00  0.00     0.062 H 
ATOM     54  C   LIG d   1       7.064  -8.681  -4.167  0.00  0.00    -0.050 A 
ATOM     55  H   LIG d   1       7.401 -10.206  -2.711  0.00  0.00     0.062 H 
ATOM     56  H   LIG d   1       8.082  -8.325  -4.141  0.00  0.00     0.062 H 
ENDBRANCH  43  46
ENDBRANCH  11  42
TORSDOF 8
ENDMDL
MODEL 6
REMARK VINA RESULT:      -6.5      7.070     10.248
REMARK  8 active torsions:
REMARK  status: ('A' for Active; 'I' for Inactive)
REMARK    1  A    between atoms: C_1  and  N_2 
REMARK    2  A    between atoms: N_2  and  C_3 
REMARK    3  A    between atoms: N_2  and  C_4 
REMARK    4  A    between atoms: C_8  and  O_10 
REMARK    5  A    between atoms: O_10  and  C_11 
REMARK    6  A    between atoms: N_15  and  C_16 
REMARK    7  A    between atoms: C_26  and  N_28 
REMARK       I    between atoms: N_28  and  C_29 
REMARK    8  A    between atoms: C_29  and  C_31 
ROOT
ATOM      1  C   LIG d   1       3.767  -5.772  -8.862  0.00  0.00     0.111 C 
ATOM      2  H   LIG d   1       3.824  -6.856  -8.957  0.00  0.00     0.060 H 
ATOM      3  C   LIG d   1       5.129  -5.130  -9.175  0.00  0.00     0.073 C 
ATOM      4  O   LIG d   1       5.401  -4.152  -8.171  0.00  0.00    -0.370 OA
ATOM      5  C   LIG d   1       4.338  -4.085  -7.217  0.00  0.00     0.107 C 
ATOM      6  H   LIG d   1       3.750  -3.173  -7.319  0.00  0.00     0.064 H 
ATOM      7  C   LIG d   1       3.490  -5.372  -7.400  0.00  0.00     0.111 C 
ATOM      8  H   LIG d   1       2.431  -5.214  -7.200  0.00  0.00     0.065 H 
ATOM      9  O   LIG d   1       4.097  -6.336  -6.516  0.00  0.00    -0.370 OA
ATOM     10  C   LIG d   1       4.402  -5.603  -5.309  0.00  0.00     0.069 C 
ATOM     11  C   LIG d   1       4.937  -4.240  -5.799  0.00  0.00     0.075 C 
ATOM     12  H   LIG d   1       6.027  -4.250  -5.844  0.00  0.00     0.055 H 
ATOM     13  H   LIG d   1       5.907  -5.894  -9.164  0.00  0.00     0.058 H 
ATOM     14  H   LIG d   1       5.095  -4.653 -10.154  0.00  0.00     0.058 H 
ATOM     15  H   LIG d   1       5.165  -6.124  -4.730  0.00  0.00     0.058 H 
ATOM     16  H   LIG d   1       3.500  -5.464  -4.712  0.00  0.00     0.058 H 
ENDROOT
BRANCH   1  17
ATOM     17  N   LIG d   1       2.731  -5.233  -9.748  0.00  0.00    -0.187 N 
ATOM     18  C   LIG d   1       2.854  -4.218 -10.632  0.00  0.00     0.342 A 
ATOM     19  N   LIG d   1       1.688  -4.070 -11.216  0.00  0.00    -0.070 NA
ATOM     20  N   LIG d   1       0.840  -4.916 -10.752  0.00  0.00    -0.020 NA
ATOM     21  N   LIG d   1       1.396  -5.658  -9.856  0.00  0.00    -0.041 NA
BRANCH  18  22
ATOM     22  O   LIG d   1       3.972  -3.493 -10.873  0.00  0.00    -0.423 OA
BRANCH  22  23
ATOM     23  C   LIG d   1       3.866  -2.138 -10.871  0.00  0.00     0.134 A 
ATOM     24  C   LIG d   1       4.051  -1.425 -12.046  0.00  0.00    -0.019 A 
ATOM     25  C   LIG d   1       3.943  -0.047 -12.046  0.00  0.00    -0.057 A 
ATOM     26  H   LIG d   1       4.280  -1.948 -12.964  0.00  0.00     0.065 H 
ATOM     27  C   LIG d   1       3.651   0.626 -10.874  0.00  0.00    -0.040 A 
ATOM     28  H   LIG d   1       4.088   0.506 -12.962  0.00  0.00     0.062 H 
ATOM     29  C   LIG d   1       3.465  -0.084  -9.693  0.00  0.00     0.033 A 
ATOM     30  H   LIG d   1       3.567   1.702 -10.876  0.00  0.00     0.064 H 
ATOM     31  C   LIG d   1       3.569  -1.468  -9.693  0.00  0.00     0.002 A 
ATOM     32  H   LIG d   1       3.419  -2.022  -8.778  0.00  0.00     0.067 H 
BRANCH  29  33
ATOM     33  N   LIG d   1       3.171   0.595  -8.510  0.00  0.00    -0.336 N 
BRANCH  33  34
ATOM     34  C   LIG d   1       2.875   2.031  -8.542  0.00  0.00     0.000 C 
ATOM     35  H   LIG d   1       3.552   2.555  -7.866  0.00  0.00     0.043 H 
ATOM     36  H   LIG d   1       3.011   2.407  -9.556  0.00  0.00     0.043 H 
ATOM     37  H   LIG d   1       1.846   2.197  -8.228  0.00  0.00     0.043 H 
ENDBRANCH  33  34
BRANCH  33  38
ATOM     38  C   LIG d   1       3.158  -0.126  -7.235  0.00  0.00     0.000 C 
ATOM     39  H   LIG d   1       2.137  -0.178  -6.856  0.00  0.00     0.043 H 
ATOM     40  H   LIG d   1       3.541  -1.136  -7.384  0.00  0.00     0.043 H 
ATOM     41  H   LIG d   1       3.787   0.397  -6.515  0.00  0.00     0.043 H 
ENDBRANCH  33  38
ENDBRANCH  29  33
ENDBRANCH  22  23
ENDBRANCH  18  22
ENDBRANCH   1  17
BRANCH  11  42
ATOM     42  N   LIG d   1       4.471  -3.162  -4.925  0.00  0.00    -0.304 N 
ATOM     43  C   LIG d   1       5.276  -2.115  -4.656  0.00  0.00     0.244 C 
ATOM     44  O   LIG d   1       6.390  -2.066  -5.141  0.00  0.00    -0.270 OA
ATOM     45  H   LIG d   1       3.581  -3.201  -4.538  0.00  0.00     0.149 HD
BRANCH  43  46
ATOM     46  C   LIG d   1       4.805  -1.026  -3.774  0.00  0.00     0.037 A 
ATOM     47  C   LIG d   1       5.714  -0.106  -3.250  0.00  0.00    -0.050 A 
ATOM     48  C   LIG d   1       5.269   0.908  -2.427  0.00  0.00    -0.061 A 
ATOM     49  H   LIG d   1       6.765  -0.188  -3.487  0.00  0.00     0.062 H 
ATOM     50  C   LIG d   1       3.924   1.013  -2.122  0.00  0.00    -0.062 A 
ATOM     51  H   LIG d   1       5.971   1.620  -2.021  0.00  0.00     0.062 H 
ATOM     52  C   LIG d   1       3.017   0.105  -2.639  0.00  0.00    -0.061 A 
ATOM     53  H   LIG d   1       3.579   1.809  -1.478  0.00  0.00     0.062 H 
ATOM     54  C   LIG d   1       3.449  -0.911  -3.467  0.00  0.00    -0.050 A 
ATOM     55  H   LIG d   1       1.968   0.193  -2.397  0.00  0.00     0.062 H 
ATOM     56  H   LIG d   1       2.740  -1.616  -3.872  0.00  0.00     0.062 H 
ENDBRANCH  43  46
ENDBRANCH  11  42
TORSDOF 8
ENDMDL
MODEL 7
REMARK VINA RESULT:      -6.5      2.295      3.030
REMARK  8 active torsions:
REMARK  status: ('A' for Active; 'I' for Inactive)
REMARK    1  A    between atoms: C_1  and  N_2 
REMARK    2  A    between atoms: N_2  and  C_3 
REMARK    3  A    between atoms: N_2  and  C_4 
REMARK    4  A    between atoms: C_8  and  O_10 
REMARK    5  A    between atoms: O_10  and  C_11 
REMARK    6  A    between atoms: N_15  and  C_16 
REMARK    7  A    between atoms: C_26  and  N_28 
REMARK       I    between atoms: N_28  and  C_29 
REMARK    8  A    between atoms: C_29  and  C_31 
ROOT
ATOM      1  C   LIG d   1      10.481   4.638  -4.019  0.00  0.00     0.111 C 
ATOM      2  H   LIG d   1      10.942   5.076  -4.904  0.00  0.00     0.060 H 
ATOM      3  C   LIG d   1      11.397   3.564  -3.409  0.00  0.00     0.073 C 
ATOM      4  O   LIG d   1      10.599   2.421  -3.101  0.00  0.00    -0.370 OA
ATOM      5  C   LIG d   1       9.230   2.640  -3.453  0.00  0.00     0.107 C 
ATOM      6  H   LIG d   1       8.594   2.768  -2.577  0.00  0.00     0.064 H 
ATOM      7  C   LIG d   1       9.202   3.868  -4.402  0.00  0.00     0.111 C 
ATOM      8  H   LIG d   1       8.300   4.469  -4.292  0.00  0.00     0.065 H 
ATOM      9  O   LIG d   1       9.355   3.311  -5.723  0.00  0.00    -0.370 OA
ATOM     10  C   LIG d   1       8.527   2.127  -5.732  0.00  0.00     0.069 C 
ATOM     11  C   LIG d   1       8.759   1.473  -4.353  0.00  0.00     0.075 C 
ATOM     12  H   LIG d   1       9.531   0.705  -4.417  0.00  0.00     0.055 H 
ATOM     13  H   LIG d   1      12.171   3.290  -4.126  0.00  0.00     0.058 H 
ATOM     14  H   LIG d   1      11.857   3.948  -2.498  0.00  0.00     0.058 H 
ATOM     15  H   LIG d   1       8.839   1.452  -6.530  0.00  0.00     0.058 H 
ATOM     16  H   LIG d   1       7.478   2.399  -5.853  0.00  0.00     0.058 H 
ENDROOT
BRANCH   1  17
ATOM     17  N   LIG d   1      10.180   5.678  -3.031  0.00  0.00    -0.187 N 
ATOM     18  C   LIG d   1       9.750   6.937  -3.270  0.00  0.00     0.342 A 
ATOM     19  N   LIG d   1       9.604   7.524  -2.105  0.00  0.00    -0.070 NA
ATOM     20  N   LIG d   1       9.922   6.722  -1.153  0.00  0.00    -0.020 NA
ATOM     21  N   LIG d   1      10.283   5.581  -1.632  0.00  0.00    -0.041 NA
BRANCH  18  22
ATOM     22  O   LIG d   1       9.511   7.488  -4.484  0.00  0.00    -0.423 OA
BRANCH  22  23
ATOM     23  C   LIG d   1      10.179   8.626  -4.810  0.00  0.00     0.134 A 
ATOM     24  C   LIG d   1       9.490   9.825  -4.929  0.00  0.00    -0.019 A 
ATOM     25  C   LIG d   1      10.168  10.984  -5.260  0.00  0.00    -0.057 A 
ATOM     26  H   LIG d   1       8.423   9.853  -4.761  0.00  0.00     0.065 H 
ATOM     27  C   LIG d   1      11.533  10.951  -5.475  0.00  0.00    -0.040 A 
ATOM     28  H   LIG d   1       9.630  11.915  -5.351  0.00  0.00     0.062 H 
ATOM     29  C   LIG d   1      12.227   9.752  -5.358  0.00  0.00     0.033 A 
ATOM     30  H   LIG d   1      12.060  11.857  -5.734  0.00  0.00     0.064 H 
ATOM     31  C   LIG d   1      11.549   8.590  -5.021  0.00  0.00     0.002 A 
ATOM     32  H   LIG d   1      12.087   7.658  -4.924  0.00  0.00     0.067 H 
BRANCH  29  33
ATOM     33  N   LIG d   1      13.606   9.720  -5.576  0.00  0.00    -0.336 N 
BRANCH  33  34
ATOM     34  C   LIG d   1      14.500   9.196  -4.540  0.00  0.00     0.000 C 
ATOM     35  H   LIG d   1      13.907   8.728  -3.753  0.00  0.00     0.043 H 
ATOM     36  H   LIG d   1      15.169   8.456  -4.978  0.00  0.00     0.043 H 
ATOM     37  H   LIG d   1      15.085  10.012  -4.118  0.00  0.00     0.043 H 
ENDBRANCH  33  34
BRANCH  33  38
ATOM     38  C   LIG d   1      14.159  10.213  -6.840  0.00  0.00     0.000 C 
ATOM     39  H   LIG d   1      14.775   9.437  -7.295  0.00  0.00     0.043 H 
ATOM     40  H   LIG d   1      13.345  10.474  -7.517  0.00  0.00     0.043 H 
ATOM     41  H   LIG d   1      14.769  11.096  -6.650  0.00  0.00     0.043 H 
ENDBRANCH  33  38
ENDBRANCH  29  33
ENDBRANCH  22  23
ENDBRANCH  18  22
ENDBRANCH   1  17
BRANCH  11  42
ATOM     42  N   LIG d   1       7.511   0.902  -3.841  0.00  0.00    -0.304 N 
ATOM     43  C   LIG d   1       7.284  -0.422  -3.942  0.00  0.00     0.244 C 
ATOM     44  O   LIG d   1       8.115  -1.143  -4.458  0.00  0.00    -0.270 OA
ATOM     45  H   LIG d   1       6.848   1.478  -3.428  0.00  0.00     0.149 HD
BRANCH  43  46
ATOM     46  C   LIG d   1       6.024  -0.999  -3.425  0.00  0.00     0.037 A 
ATOM     47  C   LIG d   1       5.267  -0.299  -2.485  0.00  0.00    -0.050 A 
ATOM     48  C   LIG d   1       4.092  -0.842  -2.007  0.00  0.00    -0.061 A 
ATOM     49  H   LIG d   1       5.601   0.666  -2.131  0.00  0.00     0.062 H 
ATOM     50  C   LIG d   1       3.665  -2.078  -2.459  0.00  0.00    -0.062 A 
ATOM     51  H   LIG d   1       3.506  -0.302  -1.279  0.00  0.00     0.062 H 
ATOM     52  C   LIG d   1       4.410  -2.776  -3.392  0.00  0.00    -0.061 A 
ATOM     53  H   LIG d   1       2.744  -2.499  -2.082  0.00  0.00     0.062 H 
ATOM     54  C   LIG d   1       5.585  -2.242  -3.881  0.00  0.00    -0.050 A 
ATOM     55  H   LIG d   1       4.071  -3.741  -3.740  0.00  0.00     0.062 H 
ATOM     56  H   LIG d   1       6.163  -2.786  -4.612  0.00  0.00     0.062 H 
ENDBRANCH  43  46
ENDBRANCH  11  42
TORSDOF 8
ENDMDL
MODEL 8
REMARK VINA RESULT:      -6.2      1.707      2.409
REMARK  8 active torsions:
REMARK  status: ('A' for Active; 'I' for Inactive)
REMARK    1  A    between atoms: C_1  and  N_2 
REMARK    2  A    between atoms: N_2  and  C_3 
REMARK    3  A    between atoms: N_2  and  C_4 
REMARK    4  A    between atoms: C_8  and  O_10 
REMARK    5  A    between atoms: O_10  and  C_11 
REMARK    6  A    between atoms: N_15  and  C_16 
REMARK    7  A    between atoms: C_26  and  N_28 
REMARK       I    between atoms: N_28  and  C_29 
REMARK    8  A    between atoms: C_29  and  C_31 
ROOT
ATOM      1  C   LIG d   1      10.434   4.149  -5.558  0.00  0.00     0.111 C 
ATOM      2  H   LIG d   1      11.191   4.004  -6.329  0.00  0.00     0.060 H 
ATOM      3  C   LIG d   1      10.987   3.755  -4.178  0.00  0.00     0.073 C 
ATOM      4  O   LIG d   1      10.004   2.961  -3.515  0.00  0.00    -0.370 OA
ATOM      5  C   LIG d   1       8.843   2.792  -4.332  0.00  0.00     0.107 C 
ATOM      6  H   LIG d   1       7.991   3.363  -3.962  0.00  0.00     0.064 H 
ATOM      7  C   LIG d   1       9.250   3.187  -5.777  0.00  0.00     0.111 C 
ATOM      8  H   LIG d   1       8.435   3.644  -6.337  0.00  0.00     0.065 H 
ATOM      9  O   LIG d   1       9.730   1.963  -6.368  0.00  0.00    -0.370 OA
ATOM     10  C   LIG d   1       8.809   0.942  -5.923  0.00  0.00     0.069 C 
ATOM     11  C   LIG d   1       8.532   1.280  -4.442  0.00  0.00     0.075 C 
ATOM     12  H   LIG d   1       9.189   0.707  -3.788  0.00  0.00     0.055 H 
ATOM     13  H   LIG d   1      11.904   3.178  -4.301  0.00  0.00     0.058 H 
ATOM     14  H   LIG d   1      11.192   4.652  -3.594  0.00  0.00     0.058 H 
ATOM     15  H   LIG d   1       9.265  -0.044  -6.008  0.00  0.00     0.058 H 
ATOM     16  H   LIG d   1       7.886   0.986  -6.502  0.00  0.00     0.058 H 
ENDROOT
BRANCH   1  17
ATOM     17  N   LIG d   1       9.973   5.540  -5.548  0.00  0.00    -0.187 N 
ATOM     18  C   LIG d   1      10.245   6.501  -6.459  0.00  0.00     0.342 A 
ATOM     19  N   LIG d   1       9.631   7.592  -6.065  0.00  0.00    -0.070 NA
ATOM     20  N   LIG d   1       9.002   7.384  -4.965  0.00  0.00    -0.020 NA
ATOM     21  N   LIG d   1       9.161   6.163  -4.584  0.00  0.00    -0.041 NA
BRANCH  18  22
ATOM     22  O   LIG d   1      11.003   6.362  -7.572  0.00  0.00    -0.423 OA
BRANCH  22  23
ATOM     23  C   LIG d   1      10.384   6.436  -8.780  0.00  0.00     0.134 A 
ATOM     24  C   LIG d   1       9.421   5.499  -9.124  0.00  0.00    -0.019 A 
ATOM     25  C   LIG d   1       8.789   5.573 -10.352  0.00  0.00    -0.057 A 
ATOM     26  H   LIG d   1       9.164   4.710  -8.433  0.00  0.00     0.065 H 
ATOM     27  C   LIG d   1       9.115   6.581 -11.240  0.00  0.00    -0.040 A 
ATOM     28  H   LIG d   1       8.039   4.843 -10.618  0.00  0.00     0.062 H 
ATOM     29  C   LIG d   1      10.080   7.522 -10.899  0.00  0.00     0.033 A 
ATOM     30  H   LIG d   1       8.620   6.637 -12.197  0.00  0.00     0.064 H 
ATOM     31  C   LIG d   1      10.711   7.452  -9.666  0.00  0.00     0.002 A 
ATOM     32  H   LIG d   1      11.457   8.185  -9.396  0.00  0.00     0.067 H 
BRANCH  29  33
ATOM     33  N   LIG d   1      10.409   8.540 -11.796  0.00  0.00    -0.336 N 
BRANCH  33  34
ATOM     34  C   LIG d   1      11.535   9.433 -11.511  0.00  0.00     0.000 C 
ATOM     35  H   LIG d   1      12.439   8.841 -11.362  0.00  0.00     0.043 H 
ATOM     36  H   LIG d   1      11.681  10.114 -12.350  0.00  0.00     0.043 H 
ATOM     37  H   LIG d   1      11.324  10.008 -10.610  0.00  0.00     0.043 H 
ENDBRANCH  33  34
BRANCH  33  38
ATOM     38  C   LIG d   1       9.628   8.716 -13.023  0.00  0.00     0.000 C 
ATOM     39  H   LIG d   1       9.748   9.735 -13.389  0.00  0.00     0.043 H 
ATOM     40  H   LIG d   1       9.978   8.014 -13.782  0.00  0.00     0.043 H 
ATOM     41  H   LIG d   1       8.575   8.526 -12.814  0.00  0.00     0.043 H 
ENDBRANCH  33  38
ENDBRANCH  29  33
ENDBRANCH  22  23
ENDBRANCH  18  22
ENDBRANCH   1  17
BRANCH  11  42
ATOM     42  N   LIG d   1       7.128   1.020  -4.111  0.00  0.00    -0.304 N 
ATOM     43  C   LIG d   1       6.768  -0.169  -3.590  0.00  0.00     0.244 C 
ATOM     44  O   LIG d   1       7.607  -1.026  -3.394  0.00  0.00    -0.270 OA
ATOM     45  H   LIG d   1       6.458   1.704  -4.267  0.00  0.00     0.149 HD
BRANCH  43  46
ATOM     46  C   LIG d   1       5.351  -0.432  -3.256  0.00  0.00     0.037 A 
ATOM     47  C   LIG d   1       4.945  -1.714  -2.884  0.00  0.00    -0.050 A 
ATOM     48  C   LIG d   1       3.622  -1.953  -2.573  0.00  0.00    -0.061 A 
ATOM     49  H   LIG d   1       5.665  -2.518  -2.841  0.00  0.00     0.062 H 
ATOM     50  C   LIG d   1       2.700  -0.923  -2.629  0.00  0.00    -0.062 A 
ATOM     51  H   LIG d   1       3.307  -2.944  -2.286  0.00  0.00     0.062 H 
ATOM     52  C   LIG d   1       3.096   0.351  -2.996  0.00  0.00    -0.061 A 
ATOM     53  H   LIG d   1       1.665  -1.114  -2.385  0.00  0.00     0.062 H 
ATOM     54  C   LIG d   1       4.417   0.603  -3.305  0.00  0.00    -0.050 A 
ATOM     55  H   LIG d   1       2.371   1.150  -3.039  0.00  0.00     0.062 H 
ATOM     56  H   LIG d   1       4.725   1.598  -3.587  0.00  0.00     0.062 H 
ENDBRANCH  43  46
ENDBRANCH  11  42
TORSDOF 8
ENDMDL
MODEL 9
REMARK VINA RESULT:      -6.2      2.725      4.016
REMARK  8 active torsions:
REMARK  status: ('A' for Active; 'I' for Inactive)
REMARK    1  A    between atoms: C_1  and  N_2 
REMARK    2  A    between atoms: N_2  and  C_3 
REMARK    3  A    between atoms: N_2  and  C_4 
REMARK    4  A    between atoms: C_8  and  O_10 
REMARK    5  A    between atoms: O_10  and  C_11 
REMARK    6  A    between atoms: N_15  and  C_16 
REMARK    7  A    between atoms: C_26  and  N_28 
REMARK       I    between atoms: N_28  and  C_29 
REMARK    8  A    between atoms: C_29  and  C_31 
ROOT
ATOM      1  C   LIG d   1      10.298   3.403  -7.962  0.00  0.00     0.111 C 
ATOM      2  H   LIG d   1      11.172   3.148  -8.561  0.00  0.00     0.060 H 
ATOM      3  C   LIG d   1      10.726   3.979  -6.602  0.00  0.00     0.073 C 
ATOM      4  O   LIG d   1       9.936   3.359  -5.588  0.00  0.00    -0.370 OA
ATOM      5  C   LIG d   1       9.017   2.420  -6.153  0.00  0.00     0.107 C 
ATOM      6  H   LIG d   1       7.988   2.778  -6.116  0.00  0.00     0.064 H 
ATOM      7  C   LIG d   1       9.503   2.133  -7.599  0.00  0.00     0.111 C 
ATOM      8  H   LIG d   1       8.684   1.937  -8.290  0.00  0.00     0.065 H 
ATOM      9  O   LIG d   1      10.411   1.021  -7.464  0.00  0.00    -0.370 OA
ATOM     10  C   LIG d   1       9.780   0.132  -6.515  0.00  0.00     0.069 C 
ATOM     11  C   LIG d   1       9.192   1.063  -5.433  0.00  0.00     0.075 C 
ATOM     12  H   LIG d   1       9.883   1.162  -4.595  0.00  0.00     0.055 H 
ATOM     13  H   LIG d   1      11.781   3.765  -6.428  0.00  0.00     0.058 H 
ATOM     14  H   LIG d   1      10.562   5.056  -6.590  0.00  0.00     0.058 H 
ATOM     15  H   LIG d   1      10.518  -0.541  -6.078  0.00  0.00     0.058 H 
ATOM     16  H   LIG d   1       8.986  -0.437  -7.000  0.00  0.00     0.058 H 
ENDROOT
BRANCH   1  17
ATOM     17  N   LIG d   1       9.447   4.357  -8.678  0.00  0.00    -0.187 N 
ATOM     18  C   LIG d   1       9.620   5.693  -8.782  0.00  0.00     0.342 A 
ATOM     19  N   LIG d   1       8.632   6.156  -9.513  0.00  0.00    -0.070 NA
ATOM     20  N   LIG d   1       7.847   5.203  -9.865  0.00  0.00    -0.020 NA
ATOM     21  N   LIG d   1       8.271   4.079  -9.398  0.00  0.00    -0.041 NA
BRANCH  18  22
ATOM     22  O   LIG d   1      10.627   6.418  -8.239  0.00  0.00    -0.423 OA
BRANCH  22  23
ATOM     23  C   LIG d   1      10.301   7.527  -7.524  0.00  0.00     0.134 A 
ATOM     24  C   LIG d   1       9.640   7.401  -6.311  0.00  0.00    -0.019 A 
ATOM     25  C   LIG d   1       9.308   8.528  -5.582  0.00  0.00    -0.057 A 
ATOM     26  H   LIG d   1       9.385   6.421  -5.935  0.00  0.00     0.065 H 
ATOM     27  C   LIG d   1       9.633   9.784  -6.060  0.00  0.00    -0.040 A 
ATOM     28  H   LIG d   1       8.794   8.427  -4.638  0.00  0.00     0.062 H 
ATOM     29  C   LIG d   1      10.295   9.915  -7.276  0.00  0.00     0.033 A 
ATOM     30  H   LIG d   1       9.373  10.662  -5.489  0.00  0.00     0.064 H 
ATOM     31  C   LIG d   1      10.633   8.785  -8.006  0.00  0.00     0.002 A 
ATOM     32  H   LIG d   1      11.151   8.884  -8.948  0.00  0.00     0.067 H 
BRANCH  29  33
ATOM     33  N   LIG d   1      10.622  11.184  -7.758  0.00  0.00    -0.336 N 
BRANCH  33  34
ATOM     34  C   LIG d   1      11.728  11.344  -8.706  0.00  0.00     0.000 C 
ATOM     35  H   LIG d   1      12.517  11.939  -8.245  0.00  0.00     0.043 H 
ATOM     36  H   LIG d   1      12.122  10.365  -8.975  0.00  0.00     0.043 H 
ATOM     37  H   LIG d   1      11.368  11.850  -9.602  0.00  0.00     0.043 H 
ENDBRANCH  33  34
BRANCH  33  38
ATOM     38  C   LIG d   1       9.861  12.355  -7.315  0.00  0.00     0.000 C 
ATOM     39  H   LIG d   1       9.061  12.037  -6.647  0.00  0.00     0.043 H 
ATOM     40  H   LIG d   1      10.524  13.041  -6.787  0.00  0.00     0.043 H 
ATOM     41  H   LIG d   1       9.434  12.859  -8.181  0.00  0.00     0.043 H 
ENDBRANCH  33  38
ENDBRANCH  29  33
ENDBRANCH  22  23
ENDBRANCH  18  22
ENDBRANCH   1  17
BRANCH  11  42
ATOM     42  N   LIG d   1       7.898   0.557  -4.971  0.00  0.00    -0.304 N 
ATOM     43  C   LIG d   1       7.350   1.040  -3.838  0.00  0.00     0.244 C 
ATOM     44  O   LIG d   1       7.932   1.896  -3.200  0.00  0.00    -0.270 OA
ATOM     45  H   LIG d   1       7.433  -0.126  -5.480  0.00  0.00     0.149 HD
BRANCH  43  46
ATOM     46  C   LIG d   1       6.044   0.530  -3.371  0.00  0.00     0.037 A 
ATOM     47  C   LIG d   1       5.169   1.370  -2.680  0.00  0.00    -0.050 A 
ATOM     48  C   LIG d   1       3.951   0.888  -2.247  0.00  0.00    -0.061 A 
ATOM     49  H   LIG d   1       5.447   2.395  -2.483  0.00  0.00     0.062 H 
ATOM     50  C   LIG d   1       3.596  -0.426  -2.499  0.00  0.00    -0.062 A 
ATOM     51  H   LIG d   1       3.274   1.536  -1.712  0.00  0.00     0.062 H 
ATOM     52  C   LIG d   1       4.457  -1.264  -3.184  0.00  0.00    -0.061 A 
ATOM     53  H   LIG d   1       2.641  -0.798  -2.158  0.00  0.00     0.062 H 
ATOM     54  C   LIG d   1       5.677  -0.792  -3.626  0.00  0.00    -0.050 A 
ATOM     55  H   LIG d   1       4.174  -2.288  -3.376  0.00  0.00     0.062 H 
ATOM     56  H   LIG d   1       6.346  -1.446  -4.164  0.00  0.00     0.062 H 
ENDBRANCH  43  46
ENDBRANCH  11  42
TORSDOF 8
ENDMDL
MODEL 10
REMARK VINA RESULT:      -6.2      8.739     13.745
REMARK  8 active torsions:
REMARK  status: ('A' for Active; 'I' for Inactive)
REMARK    1  A    between atoms: C_1  and  N_2 
REMARK    2  A    between atoms: N_2  and  C_3 
REMARK    3  A    between atoms: N_2  and  C_4 
REMARK    4  A    between atoms: C_8  and  O_10 
REMARK    5  A    between atoms: O_10  and  C_11 
REMARK    6  A    between atoms: N_15  and  C_16 
REMARK    7  A    between atoms: C_26  and  N_28 
REMARK       I    between atoms: N_28  and  C_29 
REMARK    8  A    between atoms: C_29  and  C_31 
ROOT
ATOM      1  C   LIG d   1       3.497  -5.716  -9.572  0.00  0.00     0.111 C 
ATOM      2  H   LIG d   1       3.571  -6.801  -9.632  0.00  0.00     0.060 H 
ATOM      3  C   LIG d   1       4.847  -5.063  -9.914  0.00  0.00     0.073 C 
ATOM      4  O   LIG d   1       5.108  -4.048  -8.946  0.00  0.00    -0.370 OA
ATOM      5  C   LIG d   1       4.050  -3.966  -7.988  0.00  0.00     0.107 C 
ATOM      6  H   LIG d   1       3.446  -3.067  -8.117  0.00  0.00     0.064 H 
ATOM      7  C   LIG d   1       3.222  -5.272  -8.122  0.00  0.00     0.111 C 
ATOM      8  H   LIG d   1       2.162  -5.124  -7.921  0.00  0.00     0.065 H 
ATOM      9  O   LIG d   1       3.850  -6.196  -7.211  0.00  0.00    -0.370 OA
ATOM     10  C   LIG d   1       4.149  -5.418  -6.031  0.00  0.00     0.069 C 
ATOM     11  C   LIG d   1       4.659  -4.064  -6.569  0.00  0.00     0.075 C 
ATOM     12  H   LIG d   1       5.748  -4.058  -6.621  0.00  0.00     0.055 H 
ATOM     13  H   LIG d   1       5.637  -5.814  -9.883  0.00  0.00     0.058 H 
ATOM     14  H   LIG d   1       4.799  -4.620 -10.909  0.00  0.00     0.058 H 
ATOM     15  H   LIG d   1       4.923  -5.908  -5.440  0.00  0.00     0.058 H 
ATOM     16  H   LIG d   1       3.248  -5.274  -5.433  0.00  0.00     0.058 H 
ENDROOT
BRANCH   1  17
ATOM     17  N   LIG d   1       2.447  -5.224 -10.470  0.00  0.00    -0.187 N 
ATOM     18  C   LIG d   1       1.180  -5.681 -10.576  0.00  0.00     0.342 A 
ATOM     19  N   LIG d   1       0.583  -4.956 -11.494  0.00  0.00    -0.070 NA
ATOM     20  N   LIG d   1       1.393  -4.085 -11.978  0.00  0.00    -0.020 NA
ATOM     21  N   LIG d   1       2.546  -4.183 -11.408  0.00  0.00    -0.041 NA
BRANCH  18  22
ATOM     22  O   LIG d   1       0.626  -6.692  -9.865  0.00  0.00    -0.423 OA
BRANCH  22  23
ATOM     23  C   LIG d   1      -0.713  -6.895  -9.981  0.00  0.00     0.134 A 
ATOM     24  C   LIG d   1      -1.599  -6.113  -9.255  0.00  0.00    -0.019 A 
ATOM     25  C   LIG d   1      -2.961  -6.318  -9.372  0.00  0.00    -0.057 A 
ATOM     26  H   LIG d   1      -1.224  -5.343  -8.597  0.00  0.00     0.065 H 
ATOM     27  C   LIG d   1      -3.444  -7.303 -10.212  0.00  0.00    -0.040 A 
ATOM     28  H   LIG d   1      -3.649  -5.708  -8.806  0.00  0.00     0.062 H 
ATOM     29  C   LIG d   1      -2.560  -8.090 -10.942  0.00  0.00     0.033 A 
ATOM     30  H   LIG d   1      -4.508  -7.462 -10.303  0.00  0.00     0.064 H 
ATOM     31  C   LIG d   1      -1.193  -7.882 -10.829  0.00  0.00     0.002 A 
ATOM     32  H   LIG d   1      -0.504  -8.488 -11.399  0.00  0.00     0.067 H 
BRANCH  29  33
ATOM     33  N   LIG d   1      -3.048  -9.085 -11.791  0.00  0.00    -0.336 N 
BRANCH  33  34
ATOM     34  C   LIG d   1      -2.232 -10.266 -12.082  0.00  0.00     0.000 C 
ATOM     35  H   LIG d   1      -2.672 -11.139 -11.600  0.00  0.00     0.043 H 
ATOM     36  H   LIG d   1      -2.195 -10.427 -13.159  0.00  0.00     0.043 H 
ATOM     37  H   LIG d   1      -1.222 -10.112 -11.704  0.00  0.00     0.043 H 
ENDBRANCH  33  34
BRANCH  33  38
ATOM     38  C   LIG d   1      -4.378  -8.947 -12.392  0.00  0.00     0.000 C 
ATOM     39  H   LIG d   1      -4.276  -8.771 -13.463  0.00  0.00     0.043 H 
ATOM     40  H   LIG d   1      -4.948  -9.861 -12.226  0.00  0.00     0.043 H 
ATOM     41  H   LIG d   1      -4.898  -8.107 -11.933  0.00  0.00     0.043 H 
ENDBRANCH  33  38
ENDBRANCH  29  33
ENDBRANCH  22  23
ENDBRANCH  18  22
ENDBRANCH   1  17
BRANCH  11  42
ATOM     42  N   LIG d   1       4.180  -2.965  -5.728  0.00  0.00    -0.304 N 
ATOM     43  C   LIG d   1       4.966  -2.472  -4.750  0.00  0.00     0.244 C 
ATOM     44  O   LIG d   1       6.072  -2.941  -4.567  0.00  0.00    -0.270 OA
ATOM     45  H   LIG d   1       3.297  -2.591  -5.875  0.00  0.00     0.149 HD
BRANCH  43  46
ATOM     46  C   LIG d   1       4.482  -1.363  -3.901  0.00  0.00     0.037 A 
ATOM     47  C   LIG d   1       4.832  -1.310  -2.551  0.00  0.00    -0.050 A 
ATOM     48  C   LIG d   1       4.378  -0.271  -1.764  0.00  0.00    -0.061 A 
ATOM     49  H   LIG d   1       5.455  -2.081  -2.123  0.00  0.00     0.062 H 
ATOM     50  C   LIG d   1       3.579   0.716  -2.312  0.00  0.00    -0.062 A 
ATOM     51  H   LIG d   1       4.647  -0.230  -0.719  0.00  0.00     0.062 H 
ATOM     52  C   LIG d   1       3.230   0.671  -3.650  0.00  0.00    -0.061 A 
ATOM     53  H   LIG d   1       3.226   1.527  -1.692  0.00  0.00     0.062 H 
ATOM     54  C   LIG d   1       3.681  -0.361  -4.448  0.00  0.00    -0.050 A 
ATOM     55  H   LIG d   1       2.605   1.445  -4.071  0.00  0.00     0.062 H 
ATOM     56  H   LIG d   1       3.411  -0.393  -5.493  0.00  0.00     0.062 H 
ENDBRANCH  43  46
ENDBRANCH  11  42
TORSDOF 8
ENDMDL
