MODEL 1
REMARK VINA RESULT:      -7.4      0.000      0.000
REMARK  10 active torsions:
REMARK  status: ('A' for Active; 'I' for Inactive)
REMARK    1  A    between atoms: C_1  and  N_2 
REMARK    2  A    between atoms: N_2  and  C_3 
REMARK    3  A    between atoms: N_2  and  C_4 
REMARK    4  A    between atoms: C_7  and  C_10 
REMARK    5  A    between atoms: N_14  and  C_15 
REMARK    6  A    between atoms: C_25  and  N_61 
REMARK    7  A    between atoms: C_27  and  C_28 
REMARK    8  A    between atoms: C_27  and  N_61 
REMARK    9  A    between atoms: C_28  and  C_29 
REMARK   10  A    between atoms: C_29  and  C_30 
ROOT
ATOM      1  C   LIG d   1      11.453   6.043  -1.814  0.00  0.00     0.108 C 
ATOM      2  H   LIG d   1      11.469   6.990  -2.354  0.00  0.00     0.060 H 
ATOM      3  C   LIG d   1      12.716   5.226  -2.130  0.00  0.00     0.073 C 
ATOM      4  O   LIG d   1      12.309   4.018  -2.767  0.00  0.00    -0.366 OA
ATOM      5  C   LIG d   1      10.921   3.771  -2.503  0.00  0.00     0.131 C 
ATOM      6  H   LIG d   1      10.765   3.107  -1.651  0.00  0.00     0.068 H 
ATOM      7  C   LIG d   1      10.281   5.173  -2.301  0.00  0.00     0.115 C 
ATOM      8  H   LIG d   1       9.451   5.157  -1.594  0.00  0.00     0.065 H 
ATOM      9  O   LIG d   1       9.876   5.594  -3.617  0.00  0.00    -0.366 OA
ATOM     10  C   LIG d   1       9.321   4.403  -4.233  0.00  0.00     0.093 C 
ATOM     11  C   LIG d   1      10.251   3.250  -3.797  0.00  0.00     0.030 C 
ATOM     12  H   LIG d   1      11.002   3.053  -4.562  0.00  0.00     0.090 H 
ATOM     13  H   LIG d   1      13.370   5.798  -2.788  0.00  0.00     0.058 H 
ATOM     14  H   LIG d   1      13.241   4.986  -1.205  0.00  0.00     0.058 H 
ATOM     15  H   LIG d   1       9.319   4.500  -5.318  0.00  0.00     0.062 H 
ATOM     16  H   LIG d   1       8.308   4.232  -3.867  0.00  0.00     0.062 H 
ENDROOT
BRANCH   1  17
ATOM     17  N   LIG d   1      11.346   6.281  -0.373  0.00  0.00    -0.217 N 
ATOM     18  C   LIG d   1      11.014   7.439   0.249  0.00  0.00     0.182 A 
ATOM     19  N   LIG d   1      11.042   7.203   1.544  0.00  0.00    -0.108 NA
ATOM     20  N   LIG d   1      11.366   5.982   1.772  0.00  0.00    -0.023 NA
ATOM     21  N   LIG d   1      11.569   5.357   0.663  0.00  0.00    -0.043 NA
BRANCH  18  22
ATOM     22  C   LIG d   1      10.685   8.725  -0.404  0.00  0.00     0.021 A 
ATOM     23  C   LIG d   1       9.388   8.964  -0.862  0.00  0.00    -0.049 A 
ATOM     24  C   LIG d   1       9.084  10.163  -1.471  0.00  0.00    -0.040 A 
ATOM     25  H   LIG d   1       8.624   8.211  -0.740  0.00  0.00     0.062 H 
ATOM     26  C   LIG d   1      10.067  11.133  -1.627  0.00  0.00     0.029 A 
ATOM     27  H   LIG d   1       8.081  10.348  -1.826  0.00  0.00     0.064 H 
ATOM     28  C   LIG d   1      11.360  10.898  -1.171  0.00  0.00    -0.040 A 
ATOM     29  C   LIG d   1      11.669   9.703  -0.558  0.00  0.00    -0.049 A 
ATOM     30  H   LIG d   1      12.122  11.654  -1.294  0.00  0.00     0.064 H 
ATOM     31  H   LIG d   1      12.672   9.523  -0.200  0.00  0.00     0.062 H 
BRANCH  26  32
ATOM     32  N   LIG d   1       9.757  12.345  -2.243  0.00  0.00    -0.336 N 
BRANCH  32  33
ATOM     33  C   LIG d   1      10.528  13.548  -1.923  0.00  0.00     0.000 C 
ATOM     34  H   LIG d   1      10.365  13.818  -0.879  0.00  0.00     0.043 H 
ATOM     35  H   LIG d   1      11.588  13.355  -2.088  0.00  0.00     0.043 H 
ATOM     36  H   LIG d   1      10.205  14.368  -2.565  0.00  0.00     0.043 H 
ENDBRANCH  32  33
BRANCH  32  37
ATOM     37  C   LIG d   1       8.659  12.415  -3.211  0.00  0.00     0.000 C 
ATOM     38  H   LIG d   1       8.350  11.406  -3.484  0.00  0.00     0.043 H 
ATOM     39  H   LIG d   1       7.817  12.947  -2.768  0.00  0.00     0.043 H 
ATOM     40  H   LIG d   1       8.995  12.945  -4.103  0.00  0.00     0.043 H 
ENDBRANCH  32  37
ENDBRANCH  26  32
ENDBRANCH  18  22
ENDBRANCH   1  17
BRANCH  11  41
ATOM     41  N   LIG d   1       9.467   2.034  -3.510  0.00  0.00     0.233 N 
ATOM     42  H   LIG d   1       9.229   2.013  -2.512  0.00  0.00     0.202 HD
ATOM     43  H   LIG d   1      10.027   1.206  -3.746  0.00  0.00     0.202 HD
BRANCH  41  44
ATOM     44  C   LIG d   1       8.227   2.025  -4.308  0.00  0.00    -0.033 C 
ATOM     45  H   LIG d   1       7.691   2.963  -4.164  0.00  0.00     0.081 H 
ATOM     46  H   LIG d   1       8.470   1.903  -5.363  0.00  0.00     0.081 H 
BRANCH  44  47
ATOM     47  C   LIG d   1       7.346   0.861  -3.851  0.00  0.00    -0.009 C 
ATOM     48  H   LIG d   1       6.985   0.313  -4.721  0.00  0.00     0.032 H 
ATOM     49  H   LIG d   1       7.927   0.192  -3.216  0.00  0.00     0.032 H 
BRANCH  47  50
ATOM     50  C   LIG d   1       6.152   1.404  -3.060  0.00  0.00    -0.023 C 
ATOM     51  H   LIG d   1       6.484   1.718  -2.071  0.00  0.00     0.032 H 
ATOM     52  H   LIG d   1       5.724   2.255  -3.588  0.00  0.00     0.032 H 
BRANCH  50  53
ATOM     53  C   LIG d   1       5.110   0.324  -2.921  0.00  0.00    -0.047 A 
ATOM     54  C   LIG d   1       3.767   0.652  -2.958  0.00  0.00    -0.059 A 
ATOM     55  C   LIG d   1       2.811  -0.339  -2.830  0.00  0.00    -0.061 A 
ATOM     56  H   LIG d   1       3.465   1.680  -3.086  0.00  0.00     0.062 H 
ATOM     57  C   LIG d   1       3.197  -1.656  -2.665  0.00  0.00    -0.062 A 
ATOM     58  H   LIG d   1       1.762  -0.083  -2.859  0.00  0.00     0.062 H 
ATOM     59  C   LIG d   1       4.540  -1.983  -2.630  0.00  0.00    -0.061 A 
ATOM     60  H   LIG d   1       2.450  -2.429  -2.566  0.00  0.00     0.062 H 
ATOM     61  C   LIG d   1       5.496  -0.993  -2.762  0.00  0.00    -0.059 A 
ATOM     62  H   LIG d   1       4.842  -3.012  -2.502  0.00  0.00     0.062 H 
ATOM     63  H   LIG d   1       6.545  -1.249  -2.737  0.00  0.00     0.062 H 
ENDBRANCH  50  53
ENDBRANCH  47  50
ENDBRANCH  44  47
ENDBRANCH  41  44
ENDBRANCH  11  41
TORSDOF 10
ENDMDL
MODEL 2
REMARK VINA RESULT:      -7.0      8.857     12.468
REMARK  10 active torsions:
REMARK  status: ('A' for Active; 'I' for Inactive)
REMARK    1  A    between atoms: C_1  and  N_2 
REMARK    2  A    between atoms: N_2  and  C_3 
REMARK    3  A    between atoms: N_2  and  C_4 
REMARK    4  A    between atoms: C_7  and  C_10 
REMARK    5  A    between atoms: N_14  and  C_15 
REMARK    6  A    between atoms: C_25  and  N_61 
REMARK    7  A    between atoms: C_27  and  C_28 
REMARK    8  A    between atoms: C_27  and  N_61 
REMARK    9  A    between atoms: C_28  and  C_29 
REMARK   10  A    between atoms: C_29  and  C_30 
ROOT
ATOM      1  C   LIG d   1       4.241  -2.530  -7.777  0.00  0.00     0.108 C 
ATOM      2  H   LIG d   1       3.482  -3.160  -8.242  0.00  0.00     0.060 H 
ATOM      3  C   LIG d   1       5.520  -2.518  -8.628  0.00  0.00     0.073 C 
ATOM      4  O   LIG d   1       6.572  -3.080  -7.850  0.00  0.00    -0.366 OA
ATOM      5  C   LIG d   1       6.220  -3.048  -6.459  0.00  0.00     0.131 C 
ATOM      6  H   LIG d   1       6.614  -2.171  -5.944  0.00  0.00     0.068 H 
ATOM      7  C   LIG d   1       4.668  -3.123  -6.422  0.00  0.00     0.115 C 
ATOM      8  H   LIG d   1       4.241  -2.582  -5.577  0.00  0.00     0.065 H 
ATOM      9  O   LIG d   1       4.360  -4.529  -6.388  0.00  0.00    -0.366 OA
ATOM     10  C   LIG d   1       5.337  -5.100  -5.478  0.00  0.00     0.093 C 
ATOM     11  C   LIG d   1       6.662  -4.376  -5.800  0.00  0.00     0.030 C 
ATOM     12  H   LIG d   1       7.261  -4.965  -6.495  0.00  0.00     0.090 H 
ATOM     13  H   LIG d   1       5.366  -3.105  -9.534  0.00  0.00     0.058 H 
ATOM     14  H   LIG d   1       5.777  -1.492  -8.893  0.00  0.00     0.058 H 
ATOM     15  H   LIG d   1       5.438  -6.171  -5.649  0.00  0.00     0.062 H 
ATOM     16  H   LIG d   1       5.041  -4.908  -4.446  0.00  0.00     0.062 H 
ENDROOT
BRANCH   1  17
ATOM     17  N   LIG d   1       3.733  -1.168  -7.599  0.00  0.00    -0.217 N 
ATOM     18  C   LIG d   1       3.051  -0.418  -8.500  0.00  0.00     0.182 A 
ATOM     19  N   LIG d   1       2.793   0.737  -7.924  0.00  0.00    -0.108 NA
ATOM     20  N   LIG d   1       3.265   0.760  -6.730  0.00  0.00    -0.023 NA
ATOM     21  N   LIG d   1       3.850  -0.356  -6.457  0.00  0.00    -0.043 NA
BRANCH  18  22
ATOM     22  C   LIG d   1       2.670  -0.822  -9.871  0.00  0.00     0.021 A 
ATOM     23  C   LIG d   1       1.507  -1.563 -10.084  0.00  0.00    -0.049 A 
ATOM     24  C   LIG d   1       1.154  -1.938 -11.362  0.00  0.00    -0.040 A 
ATOM     25  H   LIG d   1       0.882  -1.842  -9.248  0.00  0.00     0.062 H 
ATOM     26  C   LIG d   1       1.957  -1.579 -12.439  0.00  0.00     0.029 A 
ATOM     27  H   LIG d   1       0.254  -2.512 -11.527  0.00  0.00     0.064 H 
ATOM     28  C   LIG d   1       3.117  -0.840 -12.230  0.00  0.00    -0.040 A 
ATOM     29  C   LIG d   1       3.471  -0.458 -10.955  0.00  0.00    -0.049 A 
ATOM     30  H   LIG d   1       3.738  -0.562 -13.070  0.00  0.00     0.064 H 
ATOM     31  H   LIG d   1       4.370   0.119 -10.794  0.00  0.00     0.062 H 
BRANCH  26  32
ATOM     32  N   LIG d   1       1.598  -1.960 -13.732  0.00  0.00    -0.336 N 
BRANCH  32  33
ATOM     33  C   LIG d   1       0.218  -2.356 -14.022  0.00  0.00     0.000 C 
ATOM     34  H   LIG d   1      -0.469  -1.646 -13.561  0.00  0.00     0.043 H 
ATOM     35  H   LIG d   1       0.061  -2.365 -15.101  0.00  0.00     0.043 H 
ATOM     36  H   LIG d   1       0.034  -3.353 -13.622  0.00  0.00     0.043 H 
ENDBRANCH  32  33
BRANCH  32  37
ATOM     37  C   LIG d   1       2.601  -1.964 -14.800  0.00  0.00     0.000 C 
ATOM     38  H   LIG d   1       2.847  -2.993 -15.064  0.00  0.00     0.043 H 
ATOM     39  H   LIG d   1       2.203  -1.449 -15.675  0.00  0.00     0.043 H 
ATOM     40  H   LIG d   1       3.500  -1.453 -14.455  0.00  0.00     0.043 H 
ENDBRANCH  32  37
ENDBRANCH  26  32
ENDBRANCH  18  22
ENDBRANCH   1  17
BRANCH  11  41
ATOM     41  N   LIG d   1       7.417  -4.104  -4.562  0.00  0.00     0.233 N 
ATOM     42  H   LIG d   1       8.237  -4.720  -4.524  0.00  0.00     0.202 HD
ATOM     43  H   LIG d   1       6.814  -4.286  -3.751  0.00  0.00     0.202 HD
BRANCH  41  44
ATOM     44  C   LIG d   1       7.860  -2.698  -4.532  0.00  0.00    -0.033 C 
ATOM     45  H   LIG d   1       8.945  -2.654  -4.631  0.00  0.00     0.081 H 
ATOM     46  H   LIG d   1       7.397  -2.149  -5.352  0.00  0.00     0.081 H 
BRANCH  44  47
ATOM     47  C   LIG d   1       7.445  -2.070  -3.200  0.00  0.00    -0.009 C 
ATOM     48  H   LIG d   1       6.628  -2.647  -2.765  0.00  0.00     0.032 H 
ATOM     49  H   LIG d   1       8.295  -2.071  -2.517  0.00  0.00     0.032 H 
BRANCH  47  50
ATOM     50  C   LIG d   1       6.982  -0.631  -3.437  0.00  0.00    -0.023 C 
ATOM     51  H   LIG d   1       7.518   0.039  -2.764  0.00  0.00     0.032 H 
ATOM     52  H   LIG d   1       7.187  -0.349  -4.469  0.00  0.00     0.032 H 
BRANCH  50  53
ATOM     53  C   LIG d   1       5.502  -0.529  -3.173  0.00  0.00    -0.047 A 
ATOM     54  C   LIG d   1       4.746  -1.678  -3.028  0.00  0.00    -0.059 A 
ATOM     55  C   LIG d   1       3.388  -1.585  -2.784  0.00  0.00    -0.061 A 
ATOM     56  H   LIG d   1       5.216  -2.647  -3.104  0.00  0.00     0.062 H 
ATOM     57  C   LIG d   1       2.786  -0.344  -2.687  0.00  0.00    -0.062 A 
ATOM     58  H   LIG d   1       2.798  -2.483  -2.671  0.00  0.00     0.062 H 
ATOM     59  C   LIG d   1       3.543   0.804  -2.831  0.00  0.00    -0.061 A 
ATOM     60  H   LIG d   1       1.726  -0.272  -2.497  0.00  0.00     0.062 H 
ATOM     61  C   LIG d   1       4.901   0.710  -3.069  0.00  0.00    -0.059 A 
ATOM     62  H   LIG d   1       3.073   1.773  -2.754  0.00  0.00     0.062 H 
ATOM     63  H   LIG d   1       5.493   1.608  -3.179  0.00  0.00     0.062 H 
ENDBRANCH  50  53
ENDBRANCH  47  50
ENDBRANCH  44  47
ENDBRANCH  41  44
ENDBRANCH  11  41
TORSDOF 10
ENDMDL
MODEL 3
REMARK VINA RESULT:      -6.9      8.216     12.027
REMARK  10 active torsions:
REMARK  status: ('A' for Active; 'I' for Inactive)
REMARK    1  A    between atoms: C_1  and  N_2 
REMARK    2  A    between atoms: N_2  and  C_3 
REMARK    3  A    between atoms: N_2  and  C_4 
REMARK    4  A    between atoms: C_7  and  C_10 
REMARK    5  A    between atoms: N_14  and  C_15 
REMARK    6  A    between atoms: C_25  and  N_61 
REMARK    7  A    between atoms: C_27  and  C_28 
REMARK    8  A    between atoms: C_27  and  N_61 
REMARK    9  A    between atoms: C_28  and  C_29 
REMARK   10  A    between atoms: C_29  and  C_30 
ROOT
ATOM      1  C   LIG d   1       6.108  -0.001  -9.613  0.00  0.00     0.108 C 
ATOM      2  H   LIG d   1       5.797  -0.669 -10.416  0.00  0.00     0.060 H 
ATOM      3  C   LIG d   1       7.537   0.505  -9.863  0.00  0.00     0.073 C 
ATOM      4  O   LIG d   1       8.360   0.046  -8.794  0.00  0.00    -0.366 OA
ATOM      5  C   LIG d   1       7.543  -0.322  -7.674  0.00  0.00     0.131 C 
ATOM      6  H   LIG d   1       7.438   0.483  -6.945  0.00  0.00     0.068 H 
ATOM      7  C   LIG d   1       6.183  -0.768  -8.280  0.00  0.00     0.115 C 
ATOM      8  H   LIG d   1       5.339  -0.549  -7.625  0.00  0.00     0.065 H 
ATOM      9  O   LIG d   1       6.330  -2.177  -8.538  0.00  0.00    -0.366 OA
ATOM     10  C   LIG d   1       7.042  -2.692  -7.382  0.00  0.00     0.093 C 
ATOM     11  C   LIG d   1       8.105  -1.622  -7.051  0.00  0.00     0.030 C 
ATOM     12  H   LIG d   1       9.061  -1.879  -7.505  0.00  0.00     0.090 H 
ATOM     13  H   LIG d   1       7.904   0.121 -10.814  0.00  0.00     0.058 H 
ATOM     14  H   LIG d   1       7.544   1.596  -9.879  0.00  0.00     0.058 H 
ATOM     15  H   LIG d   1       7.520  -3.642  -7.621  0.00  0.00     0.062 H 
ATOM     16  H   LIG d   1       6.353  -2.814  -6.545  0.00  0.00     0.062 H 
ENDROOT
BRANCH   1  17
ATOM     17  N   LIG d   1       5.179   1.126  -9.500  0.00  0.00    -0.217 N 
ATOM     18  C   LIG d   1       3.856   1.136  -9.797  0.00  0.00     0.182 A 
ATOM     19  N   LIG d   1       3.415   2.352  -9.551  0.00  0.00    -0.108 NA
ATOM     20  N   LIG d   1       4.368   3.098  -9.121  0.00  0.00    -0.023 NA
ATOM     21  N   LIG d   1       5.469   2.430  -9.063  0.00  0.00    -0.043 NA
BRANCH  18  22
ATOM     22  C   LIG d   1       3.060  -0.002 -10.304  0.00  0.00     0.021 A 
ATOM     23  C   LIG d   1       2.264  -0.743  -9.428  0.00  0.00    -0.049 A 
ATOM     24  C   LIG d   1       1.523  -1.804  -9.903  0.00  0.00    -0.040 A 
ATOM     25  H   LIG d   1       2.229  -0.486  -8.380  0.00  0.00     0.062 H 
ATOM     26  C   LIG d   1       1.568  -2.136 -11.252  0.00  0.00     0.029 A 
ATOM     27  H   LIG d   1       0.908  -2.378  -9.225  0.00  0.00     0.064 H 
ATOM     28  C   LIG d   1       2.359  -1.399 -12.127  0.00  0.00    -0.040 A 
ATOM     29  C   LIG d   1       3.098  -0.335 -11.659  0.00  0.00    -0.049 A 
ATOM     30  H   LIG d   1       2.391  -1.659 -13.175  0.00  0.00     0.064 H 
ATOM     31  H   LIG d   1       3.709   0.240 -12.340  0.00  0.00     0.062 H 
BRANCH  26  32
ATOM     32  N   LIG d   1       0.817  -3.210 -11.729  0.00  0.00    -0.336 N 
BRANCH  32  33
ATOM     33  C   LIG d   1       0.615  -3.380 -13.170  0.00  0.00     0.000 C 
ATOM     34  H   LIG d   1       0.862  -2.450 -13.684  0.00  0.00     0.043 H 
ATOM     35  H   LIG d   1       1.259  -4.179 -13.536  0.00  0.00     0.043 H 
ATOM     36  H   LIG d   1      -0.426  -3.636 -13.364  0.00  0.00     0.043 H 
ENDBRANCH  32  33
BRANCH  32  37
ATOM     37  C   LIG d   1       0.230  -4.169 -10.790  0.00  0.00     0.000 C 
ATOM     38  H   LIG d   1      -0.595  -4.693 -11.273  0.00  0.00     0.043 H 
ATOM     39  H   LIG d   1       0.989  -4.889 -10.484  0.00  0.00     0.043 H 
ATOM     40  H   LIG d   1      -0.141  -3.638  -9.913  0.00  0.00     0.043 H 
ENDBRANCH  32  37
ENDBRANCH  26  32
ENDBRANCH  18  22
ENDBRANCH   1  17
BRANCH  11  41
ATOM     41  N   LIG d   1       8.245  -1.468  -5.590  0.00  0.00     0.233 N 
ATOM     42  H   LIG d   1       7.638  -0.704  -5.271  0.00  0.00     0.202 HD
ATOM     43  H   LIG d   1       9.222  -1.246  -5.366  0.00  0.00     0.202 HD
BRANCH  41  44
ATOM     44  C   LIG d   1       7.859  -2.715  -4.905  0.00  0.00    -0.033 C 
ATOM     45  H   LIG d   1       7.104  -3.238  -5.491  0.00  0.00     0.081 H 
ATOM     46  H   LIG d   1       8.734  -3.355  -4.787  0.00  0.00     0.081 H 
BRANCH  44  47
ATOM     47  C   LIG d   1       7.289  -2.374  -3.527  0.00  0.00    -0.009 C 
ATOM     48  H   LIG d   1       6.320  -2.859  -3.404  0.00  0.00     0.032 H 
ATOM     49  H   LIG d   1       7.972  -2.724  -2.754  0.00  0.00     0.032 H 
BRANCH  47  50
ATOM     50  C   LIG d   1       7.118  -0.857  -3.408  0.00  0.00    -0.023 C 
ATOM     51  H   LIG d   1       7.768  -0.479  -2.619  0.00  0.00     0.032 H 
ATOM     52  H   LIG d   1       7.381  -0.387  -4.354  0.00  0.00     0.032 H 
BRANCH  50  53
ATOM     53  C   LIG d   1       5.683  -0.539  -3.071  0.00  0.00    -0.047 A 
ATOM     54  C   LIG d   1       4.726  -1.537  -3.113  0.00  0.00    -0.059 A 
ATOM     55  C   LIG d   1       3.411  -1.245  -2.803  0.00  0.00    -0.061 A 
ATOM     56  H   LIG d   1       5.007  -2.543  -3.386  0.00  0.00     0.062 H 
ATOM     57  C   LIG d   1       3.052   0.044  -2.453  0.00  0.00    -0.062 A 
ATOM     58  H   LIG d   1       2.664  -2.024  -2.836  0.00  0.00     0.062 H 
ATOM     59  C   LIG d   1       4.010   1.040  -2.411  0.00  0.00    -0.061 A 
ATOM     60  H   LIG d   1       2.024   0.271  -2.211  0.00  0.00     0.062 H 
ATOM     61  C   LIG d   1       5.326   0.747  -2.716  0.00  0.00    -0.059 A 
ATOM     62  H   LIG d   1       3.730   2.046  -2.136  0.00  0.00     0.062 H 
ATOM     63  H   LIG d   1       6.075   1.526  -2.679  0.00  0.00     0.062 H 
ENDBRANCH  50  53
ENDBRANCH  47  50
ENDBRANCH  44  47
ENDBRANCH  41  44
ENDBRANCH  11  41
TORSDOF 10
ENDMDL
MODEL 4
REMARK VINA RESULT:      -6.9      9.181     15.734
REMARK  10 active torsions:
REMARK  status: ('A' for Active; 'I' for Inactive)
REMARK    1  A    between atoms: C_1  and  N_2 
REMARK    2  A    between atoms: N_2  and  C_3 
REMARK    3  A    between atoms: N_2  and  C_4 
REMARK    4  A    between atoms: C_7  and  C_10 
REMARK    5  A    between atoms: N_14  and  C_15 
REMARK    6  A    between atoms: C_25  and  N_61 
REMARK    7  A    between atoms: C_27  and  C_28 
REMARK    8  A    between atoms: C_27  and  N_61 
REMARK    9  A    between atoms: C_28  and  C_29 
REMARK   10  A    between atoms: C_29  and  C_30 
ROOT
ATOM      1  C   LIG d   1       6.496  -9.210  -5.093  0.00  0.00     0.108 C 
ATOM      2  H   LIG d   1       7.284  -9.958  -5.003  0.00  0.00     0.060 H 
ATOM      3  C   LIG d   1       6.135  -8.988  -6.570  0.00  0.00     0.073 C 
ATOM      4  O   LIG d   1       6.434  -7.634  -6.897  0.00  0.00    -0.366 OA
ATOM      5  C   LIG d   1       6.531  -6.853  -5.697  0.00  0.00     0.131 C 
ATOM      6  H   LIG d   1       5.598  -6.349  -5.445  0.00  0.00     0.068 H 
ATOM      7  C   LIG d   1       6.999  -7.843  -4.594  0.00  0.00     0.115 C 
ATOM      8  H   LIG d   1       6.609  -7.589  -3.609  0.00  0.00     0.065 H 
ATOM      9  O   LIG d   1       8.438  -7.808  -4.643  0.00  0.00    -0.366 OA
ATOM     10  C   LIG d   1       8.768  -6.407  -4.829  0.00  0.00     0.093 C 
ATOM     11  C   LIG d   1       7.722  -5.874  -5.833  0.00  0.00     0.030 C 
ATOM     12  H   LIG d   1       8.119  -5.897  -6.848  0.00  0.00     0.090 H 
ATOM     13  H   LIG d   1       6.716  -9.665  -7.197  0.00  0.00     0.058 H 
ATOM     14  H   LIG d   1       5.070  -9.169  -6.720  0.00  0.00     0.058 H 
ATOM     15  H   LIG d   1       9.773  -6.302  -5.236  0.00  0.00     0.062 H 
ATOM     16  H   LIG d   1       8.686  -5.875  -3.880  0.00  0.00     0.062 H 
ENDROOT
BRANCH   1  17
ATOM     17  N   LIG d   1       5.313  -9.624  -4.335  0.00  0.00    -0.217 N 
ATOM     18  C   LIG d   1       5.283 -10.263  -3.139  0.00  0.00     0.182 A 
ATOM     19  N   LIG d   1       4.016 -10.441  -2.829  0.00  0.00    -0.108 NA
ATOM     20  N   LIG d   1       3.256  -9.959  -3.745  0.00  0.00    -0.023 NA
ATOM     21  N   LIG d   1       3.965  -9.447  -4.693  0.00  0.00    -0.043 NA
BRANCH  18  22
ATOM     22  C   LIG d   1       6.451 -10.681  -2.335  0.00  0.00     0.021 A 
ATOM     23  C   LIG d   1       7.115  -9.753  -1.531  0.00  0.00    -0.049 A 
ATOM     24  C   LIG d   1       8.204 -10.146  -0.783  0.00  0.00    -0.040 A 
ATOM     25  H   LIG d   1       6.775  -8.729  -1.493  0.00  0.00     0.062 H 
ATOM     26  C   LIG d   1       8.642 -11.464  -0.829  0.00  0.00     0.029 A 
ATOM     27  H   LIG d   1       8.718  -9.428  -0.160  0.00  0.00     0.064 H 
ATOM     28  C   LIG d   1       7.982 -12.392  -1.630  0.00  0.00    -0.040 A 
ATOM     29  C   LIG d   1       6.890 -12.006  -2.376  0.00  0.00    -0.049 A 
ATOM     30  H   LIG d   1       8.325 -13.416  -1.663  0.00  0.00     0.064 H 
ATOM     31  H   LIG d   1       6.376 -12.727  -2.994  0.00  0.00     0.062 H 
BRANCH  26  32
ATOM     32  N   LIG d   1       9.744 -11.859  -0.072  0.00  0.00    -0.336 N 
BRANCH  32  33
ATOM     33  C   LIG d   1      10.237 -13.235  -0.158  0.00  0.00     0.000 C 
ATOM     34  H   LIG d   1       9.489 -13.916   0.250  0.00  0.00     0.043 H 
ATOM     35  H   LIG d   1      10.429 -13.489  -1.200  0.00  0.00     0.043 H 
ATOM     36  H   LIG d   1      11.161 -13.327   0.413  0.00  0.00     0.043 H 
ENDBRANCH  32  33
BRANCH  32  37
ATOM     37  C   LIG d   1      10.410 -10.896   0.810  0.00  0.00     0.000 C 
ATOM     38  H   LIG d   1       9.746 -10.052   0.994  0.00  0.00     0.043 H 
ATOM     39  H   LIG d   1      10.656 -11.379   1.756  0.00  0.00     0.043 H 
ATOM     40  H   LIG d   1      11.325 -10.541   0.335  0.00  0.00     0.043 H 
ENDBRANCH  32  37
ENDBRANCH  26  32
ENDBRANCH  18  22
ENDBRANCH   1  17
BRANCH  11  41
ATOM     41  N   LIG d   1       7.303  -4.508  -5.467  0.00  0.00     0.233 N 
ATOM     42  H   LIG d   1       7.845  -3.830  -6.013  0.00  0.00     0.202 HD
ATOM     43  H   LIG d   1       7.475  -4.358  -4.466  0.00  0.00     0.202 HD
BRANCH  41  44
ATOM     44  C   LIG d   1       5.867  -4.322  -5.747  0.00  0.00    -0.033 C 
ATOM     45  H   LIG d   1       5.740  -3.874  -6.732  0.00  0.00     0.081 H 
ATOM     46  H   LIG d   1       5.358  -5.285  -5.717  0.00  0.00     0.081 H 
BRANCH  44  47
ATOM     47  C   LIG d   1       5.266  -3.396  -4.686  0.00  0.00    -0.009 C 
ATOM     48  H   LIG d   1       4.601  -2.678  -5.164  0.00  0.00     0.032 H 
ATOM     49  H   LIG d   1       4.704  -3.988  -3.964  0.00  0.00     0.032 H 
BRANCH  47  50
ATOM     50  C   LIG d   1       6.391  -2.648  -3.967  0.00  0.00    -0.023 C 
ATOM     51  H   LIG d   1       6.842  -3.301  -3.219  0.00  0.00     0.032 H 
ATOM     52  H   LIG d   1       7.148  -2.346  -4.690  0.00  0.00     0.032 H 
BRANCH  50  53
ATOM     53  C   LIG d   1       5.828  -1.425  -3.290  0.00  0.00    -0.047 A 
ATOM     54  C   LIG d   1       6.347  -0.175  -3.576  0.00  0.00    -0.059 A 
ATOM     55  C   LIG d   1       5.830   0.946  -2.956  0.00  0.00    -0.061 A 
ATOM     56  H   LIG d   1       7.157  -0.077  -4.284  0.00  0.00     0.062 H 
ATOM     57  C   LIG d   1       4.793   0.819  -2.050  0.00  0.00    -0.062 A 
ATOM     58  H   LIG d   1       6.236   1.922  -3.179  0.00  0.00     0.062 H 
ATOM     59  C   LIG d   1       4.273  -0.430  -1.765  0.00  0.00    -0.061 A 
ATOM     60  H   LIG d   1       4.389   1.696  -1.566  0.00  0.00     0.062 H 
ATOM     61  C   LIG d   1       4.788  -1.551  -2.389  0.00  0.00    -0.059 A 
ATOM     62  H   LIG d   1       3.463  -0.529  -1.058  0.00  0.00     0.062 H 
ATOM     63  H   LIG d   1       4.379  -2.527  -2.169  0.00  0.00     0.062 H 
ENDBRANCH  50  53
ENDBRANCH  47  50
ENDBRANCH  44  47
ENDBRANCH  41  44
ENDBRANCH  11  41
TORSDOF 10
ENDMDL
MODEL 5
REMARK VINA RESULT:      -6.9      9.720     14.358
REMARK  10 active torsions:
REMARK  status: ('A' for Active; 'I' for Inactive)
REMARK    1  A    between atoms: C_1  and  N_2 
REMARK    2  A    between atoms: N_2  and  C_3 
REMARK    3  A    between atoms: N_2  and  C_4 
REMARK    4  A    between atoms: C_7  and  C_10 
REMARK    5  A    between atoms: N_14  and  C_15 
REMARK    6  A    between atoms: C_25  and  N_61 
REMARK    7  A    between atoms: C_27  and  C_28 
REMARK    8  A    between atoms: C_27  and  N_61 
REMARK    9  A    between atoms: C_28  and  C_29 
REMARK   10  A    between atoms: C_29  and  C_30 
ROOT
ATOM      1  C   LIG d   1       2.596  -0.858 -11.714  0.00  0.00     0.108 C 
ATOM      2  H   LIG d   1       2.397  -0.212 -12.569  0.00  0.00     0.060 H 
ATOM      3  C   LIG d   1       1.339  -0.987 -10.838  0.00  0.00     0.073 C 
ATOM      4  O   LIG d   1       1.640  -0.446  -9.556  0.00  0.00    -0.366 OA
ATOM      5  C   LIG d   1       3.062  -0.385  -9.373  0.00  0.00     0.131 C 
ATOM      6  H   LIG d   1       3.457  -1.255  -8.847  0.00  0.00     0.068 H 
ATOM      7  C   LIG d   1       3.657  -0.220 -10.799  0.00  0.00     0.115 C 
ATOM      8  H   LIG d   1       4.635  -0.691 -10.903  0.00  0.00     0.065 H 
ATOM      9  O   LIG d   1       3.703   1.201 -11.026  0.00  0.00    -0.366 OA
ATOM     10  C   LIG d   1       4.151   1.763  -9.764  0.00  0.00     0.093 C 
ATOM     11  C   LIG d   1       3.420   0.948  -8.675  0.00  0.00     0.030 C 
ATOM     12  H   LIG d   1       2.515   1.465  -8.354  0.00  0.00     0.090 H 
ATOM     13  H   LIG d   1       0.514  -0.442 -11.295  0.00  0.00     0.058 H 
ATOM     14  H   LIG d   1       1.071  -2.039 -10.732  0.00  0.00     0.058 H 
ATOM     15  H   LIG d   1       3.881   2.816  -9.697  0.00  0.00     0.062 H 
ATOM     16  H   LIG d   1       5.231   1.641  -9.666  0.00  0.00     0.062 H 
ENDROOT
BRANCH   1  17
ATOM     17  N   LIG d   1       3.041  -2.178 -12.166  0.00  0.00    -0.217 N 
ATOM     18  C   LIG d   1       3.395  -2.543 -13.424  0.00  0.00     0.182 A 
ATOM     19  N   LIG d   1       3.724  -3.816 -13.378  0.00  0.00    -0.108 NA
ATOM     20  N   LIG d   1       3.601  -4.270 -12.183  0.00  0.00    -0.023 NA
ATOM     21  N   LIG d   1       3.190  -3.341 -11.390  0.00  0.00    -0.043 NA
BRANCH  18  22
ATOM     22  C   LIG d   1       3.407  -1.673 -14.620  0.00  0.00     0.021 A 
ATOM     23  C   LIG d   1       2.482  -1.881 -15.645  0.00  0.00    -0.049 A 
ATOM     24  C   LIG d   1       2.496  -1.069 -16.759  0.00  0.00    -0.040 A 
ATOM     25  H   LIG d   1       1.756  -2.676 -15.565  0.00  0.00     0.062 H 
ATOM     26  C   LIG d   1       3.430  -0.044 -16.862  0.00  0.00     0.029 A 
ATOM     27  H   LIG d   1       1.780  -1.230 -17.552  0.00  0.00     0.064 H 
ATOM     28  C   LIG d   1       4.352   0.165 -15.842  0.00  0.00    -0.040 A 
ATOM     29  C   LIG d   1       4.340  -0.640 -14.724  0.00  0.00    -0.049 A 
ATOM     30  H   LIG d   1       5.077   0.963 -15.926  0.00  0.00     0.064 H 
ATOM     31  H   LIG d   1       5.054  -0.474 -13.931  0.00  0.00     0.062 H 
BRANCH  26  32
ATOM     32  N   LIG d   1       3.441   0.775 -17.990  0.00  0.00    -0.336 N 
BRANCH  32  33
ATOM     33  C   LIG d   1       3.116   0.217 -19.305  0.00  0.00     0.000 C 
ATOM     34  H   LIG d   1       2.394  -0.593 -19.187  0.00  0.00     0.043 H 
ATOM     35  H   LIG d   1       2.688   0.996 -19.935  0.00  0.00     0.043 H 
ATOM     36  H   LIG d   1       4.022  -0.169 -19.770  0.00  0.00     0.043 H 
ENDBRANCH  32  33
BRANCH  32  37
ATOM     37  C   LIG d   1       3.779   2.195 -17.861  0.00  0.00     0.000 C 
ATOM     38  H   LIG d   1       3.594   2.701 -18.809  0.00  0.00     0.043 H 
ATOM     39  H   LIG d   1       3.165   2.646 -17.082  0.00  0.00     0.043 H 
ATOM     40  H   LIG d   1       4.832   2.295 -17.596  0.00  0.00     0.043 H 
ENDBRANCH  32  37
ENDBRANCH  26  32
ENDBRANCH  18  22
ENDBRANCH   1  17
BRANCH  11  41
ATOM     41  N   LIG d   1       4.313   0.699  -7.528  0.00  0.00     0.233 N 
ATOM     42  H   LIG d   1       4.592   1.597  -7.115  0.00  0.00     0.202 HD
ATOM     43  H   LIG d   1       5.149   0.198  -7.852  0.00  0.00     0.202 HD
BRANCH  41  44
ATOM     44  C   LIG d   1       3.623  -0.113  -6.509  0.00  0.00    -0.033 C 
ATOM     45  H   LIG d   1       3.142  -0.967  -6.985  0.00  0.00     0.081 H 
ATOM     46  H   LIG d   1       4.344  -0.467  -5.771  0.00  0.00     0.081 H 
BRANCH  44  47
ATOM     47  C   LIG d   1       2.565   0.747  -5.816  0.00  0.00    -0.009 C 
ATOM     48  H   LIG d   1       3.032   1.645  -5.412  0.00  0.00     0.032 H 
ATOM     49  H   LIG d   1       1.797   1.028  -6.536  0.00  0.00     0.032 H 
BRANCH  47  50
ATOM     50  C   LIG d   1       1.926  -0.051  -4.676  0.00  0.00    -0.023 C 
ATOM     51  H   LIG d   1       1.038   0.471  -4.321  0.00  0.00     0.032 H 
ATOM     52  H   LIG d   1       1.648  -1.041  -5.036  0.00  0.00     0.032 H 
BRANCH  50  53
ATOM     53  C   LIG d   1       2.914  -0.188  -3.545  0.00  0.00    -0.047 A 
ATOM     54  C   LIG d   1       3.285  -1.444  -3.101  0.00  0.00    -0.059 A 
ATOM     55  C   LIG d   1       4.191  -1.569  -2.064  0.00  0.00    -0.061 A 
ATOM     56  H   LIG d   1       2.867  -2.325  -3.563  0.00  0.00     0.062 H 
ATOM     57  C   LIG d   1       4.725  -0.439  -1.472  0.00  0.00    -0.062 A 
ATOM     58  H   LIG d   1       4.481  -2.550  -1.716  0.00  0.00     0.062 H 
ATOM     59  C   LIG d   1       4.355   0.816  -1.918  0.00  0.00    -0.061 A 
ATOM     60  H   LIG d   1       5.433  -0.538  -0.662  0.00  0.00     0.062 H 
ATOM     61  C   LIG d   1       3.452   0.941  -2.957  0.00  0.00    -0.059 A 
ATOM     62  H   LIG d   1       4.773   1.698  -1.456  0.00  0.00     0.062 H 
ATOM     63  H   LIG d   1       3.165   1.922  -3.308  0.00  0.00     0.062 H 
ENDBRANCH  50  53
ENDBRANCH  47  50
ENDBRANCH  44  47
ENDBRANCH  41  44
ENDBRANCH  11  41
TORSDOF 10
ENDMDL
MODEL 6
REMARK VINA RESULT:      -6.7      9.031     13.526
REMARK  10 active torsions:
REMARK  status: ('A' for Active; 'I' for Inactive)
REMARK    1  A    between atoms: C_1  and  N_2 
REMARK    2  A    between atoms: N_2  and  C_3 
REMARK    3  A    between atoms: N_2  and  C_4 
REMARK    4  A    between atoms: C_7  and  C_10 
REMARK    5  A    between atoms: N_14  and  C_15 
REMARK    6  A    between atoms: C_25  and  N_61 
REMARK    7  A    between atoms: C_27  and  C_28 
REMARK    8  A    between atoms: C_27  and  N_61 
REMARK    9  A    between atoms: C_28  and  C_29 
REMARK   10  A    between atoms: C_29  and  C_30 
ROOT
ATOM      1  C   LIG d   1       6.267  -3.524  -4.711  0.00  0.00     0.108 C 
ATOM      2  H   LIG d   1       6.067  -4.419  -4.122  0.00  0.00     0.060 H 
ATOM      3  C   LIG d   1       7.411  -2.715  -4.081  0.00  0.00     0.073 C 
ATOM      4  O   LIG d   1       6.892  -1.445  -3.698  0.00  0.00    -0.366 OA
ATOM      5  C   LIG d   1       5.668  -1.186  -4.400  0.00  0.00     0.131 C 
ATOM      6  H   LIG d   1       5.817  -0.598  -5.306  0.00  0.00     0.068 H 
ATOM      7  C   LIG d   1       5.049  -2.584  -4.683  0.00  0.00     0.115 C 
ATOM      8  H   LIG d   1       4.479  -2.610  -5.612  0.00  0.00     0.065 H 
ATOM      9  O   LIG d   1       4.236  -2.876  -3.530  0.00  0.00    -0.366 OA
ATOM     10  C   LIG d   1       3.581  -1.620  -3.211  0.00  0.00     0.093 C 
ATOM     11  C   LIG d   1       4.659  -0.535  -3.424  0.00  0.00     0.030 C 
ATOM     12  H   LIG d   1       5.147  -0.290  -2.480  0.00  0.00     0.090 H 
ATOM     13  H   LIG d   1       7.801  -3.242  -3.211  0.00  0.00     0.058 H 
ATOM     14  H   LIG d   1       8.208  -2.572  -4.812  0.00  0.00     0.058 H 
ATOM     15  H   LIG d   1       3.240  -1.619  -2.177  0.00  0.00     0.062 H 
ATOM     16  H   LIG d   1       2.741  -1.457  -3.888  0.00  0.00     0.062 H 
ENDROOT
BRANCH   1  17
ATOM     17  N   LIG d   1       6.598  -3.887  -6.091  0.00  0.00    -0.217 N 
ATOM     18  C   LIG d   1       6.671  -5.133  -6.621  0.00  0.00     0.182 A 
ATOM     19  N   LIG d   1       6.999  -4.995  -7.888  0.00  0.00    -0.108 NA
ATOM     20  N   LIG d   1       7.135  -3.753  -8.185  0.00  0.00    -0.023 NA
ATOM     21  N   LIG d   1       6.910  -3.017  -7.151  0.00  0.00    -0.043 NA
BRANCH  18  22
ATOM     22  C   LIG d   1       6.428  -6.407  -5.909  0.00  0.00     0.021 A 
ATOM     23  C   LIG d   1       7.485  -7.069  -5.283  0.00  0.00    -0.049 A 
ATOM     24  C   LIG d   1       7.256  -8.256  -4.620  0.00  0.00    -0.040 A 
ATOM     25  H   LIG d   1       8.480  -6.652  -5.316  0.00  0.00     0.062 H 
ATOM     26  C   LIG d   1       5.974  -8.792  -4.575  0.00  0.00     0.029 A 
ATOM     27  H   LIG d   1       8.074  -8.769  -4.135  0.00  0.00     0.064 H 
ATOM     28  C   LIG d   1       4.919  -8.134  -5.198  0.00  0.00    -0.040 A 
ATOM     29  C   LIG d   1       5.141  -6.945  -5.858  0.00  0.00    -0.049 A 
ATOM     30  H   LIG d   1       3.924  -8.554  -5.161  0.00  0.00     0.064 H 
ATOM     31  H   LIG d   1       4.321  -6.432  -6.338  0.00  0.00     0.062 H 
BRANCH  26  32
ATOM     32  N   LIG d   1       5.746  -9.993  -3.904  0.00  0.00    -0.336 N 
BRANCH  32  33
ATOM     33  C   LIG d   1       4.413 -10.296  -3.377  0.00  0.00     0.000 C 
ATOM     34  H   LIG d   1       4.493 -11.057  -2.600  0.00  0.00     0.043 H 
ATOM     35  H   LIG d   1       3.975  -9.391  -2.955  0.00  0.00     0.043 H 
ATOM     36  H   LIG d   1       3.779 -10.664  -4.183  0.00  0.00     0.043 H 
ENDBRANCH  32  33
BRANCH  32  37
ATOM     37  C   LIG d   1       6.839 -10.953  -3.726  0.00  0.00     0.000 C 
ATOM     38  H   LIG d   1       6.430 -11.961  -3.658  0.00  0.00     0.043 H 
ATOM     39  H   LIG d   1       7.518 -10.892  -4.576  0.00  0.00     0.043 H 
ATOM     40  H   LIG d   1       7.381 -10.719  -2.810  0.00  0.00     0.043 H 
ENDBRANCH  32  37
ENDBRANCH  26  32
ENDBRANCH  18  22
ENDBRANCH   1  17
BRANCH  11  41
ATOM     41  N   LIG d   1       4.067   0.670  -4.033  0.00  0.00     0.233 N 
ATOM     42  H   LIG d   1       4.630   0.952  -4.843  0.00  0.00     0.202 HD
ATOM     43  H   LIG d   1       4.058   1.430  -3.342  0.00  0.00     0.202 HD
BRANCH  41  44
ATOM     44  C   LIG d   1       2.686   0.395  -4.472  0.00  0.00    -0.033 C 
ATOM     45  H   LIG d   1       2.503  -0.679  -4.456  0.00  0.00     0.081 H 
ATOM     46  H   LIG d   1       1.982   0.894  -3.805  0.00  0.00     0.081 H 
BRANCH  44  47
ATOM     47  C   LIG d   1       2.499   0.923  -5.896  0.00  0.00    -0.009 C 
ATOM     48  H   LIG d   1       1.463   1.229  -6.038  0.00  0.00     0.032 H 
ATOM     49  H   LIG d   1       3.157   1.777  -6.056  0.00  0.00     0.032 H 
BRANCH  47  50
ATOM     50  C   LIG d   1       2.844  -0.182  -6.898  0.00  0.00    -0.023 C 
ATOM     51  H   LIG d   1       3.697  -0.752  -6.530  0.00  0.00     0.032 H 
ATOM     52  H   LIG d   1       1.988  -0.844  -7.018  0.00  0.00     0.032 H 
BRANCH  50  53
ATOM     53  C   LIG d   1       3.191   0.437  -8.228  0.00  0.00    -0.047 A 
ATOM     54  C   LIG d   1       3.158   1.812  -8.379  0.00  0.00    -0.059 A 
ATOM     55  C   LIG d   1       3.477   2.379  -9.599  0.00  0.00    -0.061 A 
ATOM     56  H   LIG d   1       2.884   2.440  -7.545  0.00  0.00     0.062 H 
ATOM     57  C   LIG d   1       3.827   1.574 -10.666  0.00  0.00    -0.062 A 
ATOM     58  H   LIG d   1       3.451   3.453  -9.717  0.00  0.00     0.062 H 
ATOM     59  C   LIG d   1       3.861   0.200 -10.514  0.00  0.00    -0.061 A 
ATOM     60  H   LIG d   1       4.076   2.018 -11.619  0.00  0.00     0.062 H 
ATOM     61  C   LIG d   1       3.547  -0.367  -9.293  0.00  0.00    -0.059 A 
ATOM     62  H   LIG d   1       4.136  -0.429 -11.348  0.00  0.00     0.062 H 
ATOM     63  H   LIG d   1       3.577  -1.441  -9.173  0.00  0.00     0.062 H 
ENDBRANCH  50  53
ENDBRANCH  47  50
ENDBRANCH  44  47
ENDBRANCH  41  44
ENDBRANCH  11  41
TORSDOF 10
ENDMDL
MODEL 7
REMARK VINA RESULT:      -6.7      2.958      3.448
REMARK  10 active torsions:
REMARK  status: ('A' for Active; 'I' for Inactive)
REMARK    1  A    between atoms: C_1  and  N_2 
REMARK    2  A    between atoms: N_2  and  C_3 
REMARK    3  A    between atoms: N_2  and  C_4 
REMARK    4  A    between atoms: C_7  and  C_10 
REMARK    5  A    between atoms: N_14  and  C_15 
REMARK    6  A    between atoms: C_25  and  N_61 
REMARK    7  A    between atoms: C_27  and  C_28 
REMARK    8  A    between atoms: C_27  and  N_61 
REMARK    9  A    between atoms: C_28  and  C_29 
REMARK   10  A    between atoms: C_29  and  C_30 
ROOT
ATOM      1  C   LIG d   1      11.052   5.119  -3.532  0.00  0.00     0.108 C 
ATOM      2  H   LIG d   1      11.590   5.628  -4.333  0.00  0.00     0.060 H 
ATOM      3  C   LIG d   1      11.998   4.182  -2.765  0.00  0.00     0.073 C 
ATOM      4  O   LIG d   1      11.520   2.850  -2.923  0.00  0.00    -0.366 OA
ATOM      5  C   LIG d   1      10.145   2.870  -3.333  0.00  0.00     0.131 C 
ATOM      6  H   LIG d   1       9.453   2.777  -2.496  0.00  0.00     0.068 H 
ATOM      7  C   LIG d   1       9.966   4.199  -4.119  0.00  0.00     0.115 C 
ATOM      8  H   LIG d   1       8.965   4.617  -4.015  0.00  0.00     0.065 H 
ATOM      9  O   LIG d   1      10.289   3.876  -5.485  0.00  0.00    -0.366 OA
ATOM     10  C   LIG d   1       9.681   2.577  -5.711  0.00  0.00     0.093 C 
ATOM     11  C   LIG d   1       9.929   1.781  -4.411  0.00  0.00     0.030 C 
ATOM     12  H   LIG d   1      10.819   1.159  -4.507  0.00  0.00     0.090 H 
ATOM     13  H   LIG d   1      13.009   4.271  -3.163  0.00  0.00     0.058 H 
ATOM     14  H   LIG d   1      11.995   4.443  -1.706  0.00  0.00     0.058 H 
ATOM     15  H   LIG d   1      10.151   2.078  -6.558  0.00  0.00     0.062 H 
ATOM     16  H   LIG d   1       8.611   2.693  -5.886  0.00  0.00     0.062 H 
ENDROOT
BRANCH   1  17
ATOM     17  N   LIG d   1      10.453   6.098  -2.622  0.00  0.00    -0.217 N 
ATOM     18  C   LIG d   1      10.129   7.387  -2.894  0.00  0.00     0.182 A 
ATOM     19  N   LIG d   1       9.620   7.897  -1.792  0.00  0.00    -0.108 NA
ATOM     20  N   LIG d   1       9.603   7.019  -0.855  0.00  0.00    -0.023 NA
ATOM     21  N   LIG d   1      10.092   5.903  -1.277  0.00  0.00    -0.043 NA
BRANCH  18  22
ATOM     22  C   LIG d   1      10.314   8.086  -4.184  0.00  0.00     0.021 A 
ATOM     23  C   LIG d   1       9.375   7.929  -5.205  0.00  0.00    -0.049 A 
ATOM     24  C   LIG d   1       9.550   8.582  -6.406  0.00  0.00    -0.040 A 
ATOM     25  H   LIG d   1       8.512   7.298  -5.054  0.00  0.00     0.062 H 
ATOM     26  C   LIG d   1      10.660   9.397  -6.600  0.00  0.00     0.029 A 
ATOM     27  H   LIG d   1       8.824   8.461  -7.196  0.00  0.00     0.064 H 
ATOM     28  C   LIG d   1      11.597   9.555  -5.584  0.00  0.00    -0.040 A 
ATOM     29  C   LIG d   1      11.424   8.909  -4.380  0.00  0.00    -0.049 A 
ATOM     30  H   LIG d   1      12.458  10.189  -5.739  0.00  0.00     0.064 H 
ATOM     31  H   LIG d   1      12.150   9.035  -3.590  0.00  0.00     0.062 H 
BRANCH  26  32
ATOM     32  N   LIG d   1      10.834  10.056  -7.817  0.00  0.00    -0.336 N 
BRANCH  32  33
ATOM     33  C   LIG d   1      11.004   9.285  -9.050  0.00  0.00     0.000 C 
ATOM     34  H   LIG d   1      10.869   8.224  -8.837  0.00  0.00     0.043 H 
ATOM     35  H   LIG d   1      10.264   9.605  -9.784  0.00  0.00     0.043 H 
ATOM     36  H   LIG d   1      12.005   9.451  -9.448  0.00  0.00     0.043 H 
ENDBRANCH  32  33
BRANCH  32  37
ATOM     37  C   LIG d   1      10.847  11.521  -7.861  0.00  0.00     0.000 C 
ATOM     38  H   LIG d   1      10.486  11.917  -6.913  0.00  0.00     0.043 H 
ATOM     39  H   LIG d   1      11.865  11.870  -8.038  0.00  0.00     0.043 H 
ATOM     40  H   LIG d   1      10.200  11.865  -8.668  0.00  0.00     0.043 H 
ENDBRANCH  32  37
ENDBRANCH  26  32
ENDBRANCH  18  22
ENDBRANCH   1  17
BRANCH  11  41
ATOM     41  N   LIG d   1       8.751   0.960  -4.076  0.00  0.00     0.233 N 
ATOM     42  H   LIG d   1       7.899   1.505  -4.248  0.00  0.00     0.202 HD
ATOM     43  H   LIG d   1       8.794   0.695  -3.084  0.00  0.00     0.202 HD
BRANCH  41  44
ATOM     44  C   LIG d   1       8.725  -0.260  -4.904  0.00  0.00    -0.033 C 
ATOM     45  H   LIG d   1       8.945  -0.004  -5.940  0.00  0.00     0.081 H 
ATOM     46  H   LIG d   1       9.470  -0.968  -4.539  0.00  0.00     0.081 H 
BRANCH  44  47
ATOM     47  C   LIG d   1       7.335  -0.894  -4.819  0.00  0.00    -0.009 C 
ATOM     48  H   LIG d   1       6.593  -0.198  -5.211  0.00  0.00     0.032 H 
ATOM     49  H   LIG d   1       7.318  -1.813  -5.405  0.00  0.00     0.032 H 
BRANCH  47  50
ATOM     50  C   LIG d   1       7.010  -1.216  -3.358  0.00  0.00    -0.023 C 
ATOM     51  H   LIG d   1       7.043  -2.295  -3.208  0.00  0.00     0.032 H 
ATOM     52  H   LIG d   1       7.741  -0.735  -2.709  0.00  0.00     0.032 H 
BRANCH  50  53
ATOM     53  C   LIG d   1       5.631  -0.705  -3.027  0.00  0.00    -0.047 A 
ATOM     54  C   LIG d   1       4.549  -1.564  -3.063  0.00  0.00    -0.059 A 
ATOM     55  C   LIG d   1       3.285  -1.096  -2.759  0.00  0.00    -0.061 A 
ATOM     56  H   LIG d   1       4.691  -2.601  -3.329  0.00  0.00     0.062 H 
ATOM     57  C   LIG d   1       3.102   0.232  -2.418  0.00  0.00    -0.062 A 
ATOM     58  H   LIG d   1       2.439  -1.767  -2.787  0.00  0.00     0.062 H 
ATOM     59  C   LIG d   1       4.185   1.091  -2.380  0.00  0.00    -0.061 A 
ATOM     60  H   LIG d   1       2.114   0.598  -2.180  0.00  0.00     0.062 H 
ATOM     61  C   LIG d   1       5.450   0.621  -2.681  0.00  0.00    -0.059 A 
ATOM     62  H   LIG d   1       4.043   2.127  -2.113  0.00  0.00     0.062 H 
ATOM     63  H   LIG d   1       6.297   1.291  -2.648  0.00  0.00     0.062 H 
ENDBRANCH  50  53
ENDBRANCH  47  50
ENDBRANCH  44  47
ENDBRANCH  41  44
ENDBRANCH  11  41
TORSDOF 10
ENDMDL
MODEL 8
REMARK VINA RESULT:      -6.2      9.894     15.448
REMARK  10 active torsions:
REMARK  status: ('A' for Active; 'I' for Inactive)
REMARK    1  A    between atoms: C_1  and  N_2 
REMARK    2  A    between atoms: N_2  and  C_3 
REMARK    3  A    between atoms: N_2  and  C_4 
REMARK    4  A    between atoms: C_7  and  C_10 
REMARK    5  A    between atoms: N_14  and  C_15 
REMARK    6  A    between atoms: C_25  and  N_61 
REMARK    7  A    between atoms: C_27  and  C_28 
REMARK    8  A    between atoms: C_27  and  N_61 
REMARK    9  A    between atoms: C_28  and  C_29 
REMARK   10  A    between atoms: C_29  and  C_30 
ROOT
ATOM      1  C   LIG d   1       5.576  -9.015  -5.654  0.00  0.00     0.108 C 
ATOM      2  H   LIG d   1       6.608  -9.340  -5.795  0.00  0.00     0.060 H 
ATOM      3  C   LIG d   1       4.804  -9.099  -6.980  0.00  0.00     0.073 C 
ATOM      4  O   LIG d   1       4.387  -7.783  -7.330  0.00  0.00    -0.366 OA
ATOM      5  C   LIG d   1       4.424  -6.936  -6.172  0.00  0.00     0.131 C 
ATOM      6  H   LIG d   1       3.458  -6.864  -5.671  0.00  0.00     0.068 H 
ATOM      7  C   LIG d   1       5.534  -7.528  -5.260  0.00  0.00     0.115 C 
ATOM      8  H   LIG d   1       5.327  -7.383  -4.199  0.00  0.00     0.065 H 
ATOM      9  O   LIG d   1       6.750  -6.880  -5.678  0.00  0.00    -0.366 OA
ATOM     10  C   LIG d   1       6.374  -5.495  -5.899  0.00  0.00     0.093 C 
ATOM     11  C   LIG d   1       4.990  -5.555  -6.581  0.00  0.00     0.030 C 
ATOM     12  H   LIG d   1       5.093  -5.492  -7.664  0.00  0.00     0.090 H 
ATOM     13  H   LIG d   1       5.448  -9.511  -7.757  0.00  0.00     0.058 H 
ATOM     14  H   LIG d   1       3.926  -9.734  -6.855  0.00  0.00     0.058 H 
ATOM     15  H   LIG d   1       7.096  -5.003  -6.549  0.00  0.00     0.062 H 
ATOM     16  H   LIG d   1       6.304  -4.971  -4.945  0.00  0.00     0.062 H 
ENDROOT
BRANCH   1  17
ATOM     17  N   LIG d   1       4.922  -9.832  -4.629  0.00  0.00    -0.217 N 
ATOM     18  C   LIG d   1       5.499 -10.424  -3.554  0.00  0.00     0.182 A 
ATOM     19  N   LIG d   1       4.546 -11.057  -2.904  0.00  0.00    -0.108 NA
ATOM     20  N   LIG d   1       3.417 -10.903  -3.497  0.00  0.00    -0.023 NA
ATOM     21  N   LIG d   1       3.561 -10.174  -4.551  0.00  0.00    -0.043 NA
BRANCH  18  22
ATOM     22  C   LIG d   1       6.930 -10.368  -3.182  0.00  0.00     0.021 A 
ATOM     23  C   LIG d   1       7.379  -9.408  -2.274  0.00  0.00    -0.049 A 
ATOM     24  C   LIG d   1       8.713  -9.358  -1.929  0.00  0.00    -0.040 A 
ATOM     25  H   LIG d   1       6.683  -8.705  -1.841  0.00  0.00     0.062 H 
ATOM     26  C   LIG d   1       9.610 -10.263  -2.486  0.00  0.00     0.029 A 
ATOM     27  H   LIG d   1       9.061  -8.615  -1.227  0.00  0.00     0.064 H 
ATOM     28  C   LIG d   1       9.164 -11.221  -3.391  0.00  0.00    -0.040 A 
ATOM     29  C   LIG d   1       7.832 -11.279  -3.735  0.00  0.00    -0.049 A 
ATOM     30  H   LIG d   1       9.864 -11.923  -3.821  0.00  0.00     0.064 H 
ATOM     31  H   LIG d   1       7.486 -12.025  -4.435  0.00  0.00     0.062 H 
BRANCH  26  32
ATOM     32  N   LIG d   1      10.958 -10.210  -2.135  0.00  0.00    -0.336 N 
BRANCH  32  33
ATOM     33  C   LIG d   1      11.422  -9.226  -1.154  0.00  0.00     0.000 C 
ATOM     34  H   LIG d   1      10.649  -8.473  -1.001  0.00  0.00     0.043 H 
ATOM     35  H   LIG d   1      11.634  -9.727  -0.210  0.00  0.00     0.043 H 
ATOM     36  H   LIG d   1      12.329  -8.747  -1.522  0.00  0.00     0.043 H 
ENDBRANCH  32  33
BRANCH  32  37
ATOM     37  C   LIG d   1      11.912 -11.138  -2.749  0.00  0.00     0.000 C 
ATOM     38  H   LIG d   1      11.539 -11.451  -3.724  0.00  0.00     0.043 H 
ATOM     39  H   LIG d   1      12.876 -10.643  -2.869  0.00  0.00     0.043 H 
ATOM     40  H   LIG d   1      12.030 -12.013  -2.108  0.00  0.00     0.043 H 
ENDBRANCH  32  37
ENDBRANCH  26  32
ENDBRANCH  18  22
ENDBRANCH   1  17
BRANCH  11  41
ATOM     41  N   LIG d   1       4.118  -4.478  -6.076  0.00  0.00     0.233 N 
ATOM     42  H   LIG d   1       3.280  -4.892  -5.651  0.00  0.00     0.202 HD
ATOM     43  H   LIG d   1       3.841  -3.872  -6.857  0.00  0.00     0.202 HD
BRANCH  41  44
ATOM     44  C   LIG d   1       4.831  -3.674  -5.065  0.00  0.00    -0.033 C 
ATOM     45  H   LIG d   1       4.272  -3.682  -4.130  0.00  0.00     0.081 H 
ATOM     46  H   LIG d   1       5.824  -4.091  -4.899  0.00  0.00     0.081 H 
BRANCH  44  47
ATOM     47  C   LIG d   1       4.959  -2.235  -5.570  0.00  0.00    -0.009 C 
ATOM     48  H   LIG d   1       5.384  -2.238  -6.573  0.00  0.00     0.032 H 
ATOM     49  H   LIG d   1       3.974  -1.769  -5.592  0.00  0.00     0.032 H 
BRANCH  47  50
ATOM     50  C   LIG d   1       5.875  -1.446  -4.631  0.00  0.00    -0.023 C 
ATOM     51  H   LIG d   1       6.393  -2.136  -3.964  0.00  0.00     0.032 H 
ATOM     52  H   LIG d   1       6.606  -0.891  -5.218  0.00  0.00     0.032 H 
BRANCH  50  53
ATOM     53  C   LIG d   1       5.050  -0.484  -3.816  0.00  0.00    -0.047 A 
ATOM     54  C   LIG d   1       3.919   0.093  -4.365  0.00  0.00    -0.059 A 
ATOM     55  C   LIG d   1       3.162   0.975  -3.617  0.00  0.00    -0.061 A 
ATOM     56  H   LIG d   1       3.628  -0.147  -5.377  0.00  0.00     0.062 H 
ATOM     57  C   LIG d   1       3.535   1.281  -2.321  0.00  0.00    -0.062 A 
ATOM     58  H   LIG d   1       2.279   1.425  -4.046  0.00  0.00     0.062 H 
ATOM     59  C   LIG d   1       4.665   0.703  -1.773  0.00  0.00    -0.061 A 
ATOM     60  H   LIG d   1       2.942   1.970  -1.738  0.00  0.00     0.062 H 
ATOM     61  C   LIG d   1       5.419  -0.183  -2.519  0.00  0.00    -0.059 A 
ATOM     62  H   LIG d   1       4.955   0.941  -0.760  0.00  0.00     0.062 H 
ATOM     63  H   LIG d   1       6.300  -0.637  -2.089  0.00  0.00     0.062 H 
ENDBRANCH  50  53
ENDBRANCH  47  50
ENDBRANCH  44  47
ENDBRANCH  41  44
ENDBRANCH  11  41
TORSDOF 10
ENDMDL
MODEL 9
REMARK VINA RESULT:      -6.2      9.002     15.350
REMARK  10 active torsions:
REMARK  status: ('A' for Active; 'I' for Inactive)
REMARK    1  A    between atoms: C_1  and  N_2 
REMARK    2  A    between atoms: N_2  and  C_3 
REMARK    3  A    between atoms: N_2  and  C_4 
REMARK    4  A    between atoms: C_7  and  C_10 
REMARK    5  A    between atoms: N_14  and  C_15 
REMARK    6  A    between atoms: C_25  and  N_61 
REMARK    7  A    between atoms: C_27  and  C_28 
REMARK    8  A    between atoms: C_27  and  N_61 
REMARK    9  A    between atoms: C_28  and  C_29 
REMARK   10  A    between atoms: C_29  and  C_30 
ROOT
ATOM      1  C   LIG d   1       7.742  -7.910  -5.356  0.00  0.00     0.108 C 
ATOM      2  H   LIG d   1       8.369  -8.790  -5.216  0.00  0.00     0.060 H 
ATOM      3  C   LIG d   1       8.118  -7.187  -6.659  0.00  0.00     0.073 C 
ATOM      4  O   LIG d   1       8.584  -5.885  -6.321  0.00  0.00    -0.366 OA
ATOM      5  C   LIG d   1       8.142  -5.536  -5.001  0.00  0.00     0.131 C 
ATOM      6  H   LIG d   1       7.217  -4.957  -5.005  0.00  0.00     0.068 H 
ATOM      7  C   LIG d   1       8.006  -6.884  -4.239  0.00  0.00     0.115 C 
ATOM      8  H   LIG d   1       7.212  -6.866  -3.493  0.00  0.00     0.065 H 
ATOM      9  O   LIG d   1       9.302  -7.121  -3.659  0.00  0.00    -0.366 OA
ATOM     10  C   LIG d   1       9.733  -5.822  -3.173  0.00  0.00     0.093 C 
ATOM     11  C   LIG d   1       9.294  -4.817  -4.261  0.00  0.00     0.030 C 
ATOM     12  H   LIG d   1      10.117  -4.611  -4.946  0.00  0.00     0.090 H 
ATOM     13  H   LIG d   1       8.897  -7.744  -7.178  0.00  0.00     0.058 H 
ATOM     14  H   LIG d   1       7.239  -7.100  -7.299  0.00  0.00     0.058 H 
ATOM     15  H   LIG d   1      10.815  -5.800  -3.050  0.00  0.00     0.062 H 
ATOM     16  H   LIG d   1       9.239  -5.596  -2.227  0.00  0.00     0.062 H 
ENDROOT
BRANCH   1  17
ATOM     17  N   LIG d   1       6.327  -8.291  -5.373  0.00  0.00    -0.217 N 
ATOM     18  C   LIG d   1       5.731  -9.278  -4.660  0.00  0.00     0.182 A 
ATOM     19  N   LIG d   1       4.455  -9.271  -4.984  0.00  0.00    -0.108 NA
ATOM     20  N   LIG d   1       4.215  -8.351  -5.847  0.00  0.00    -0.023 NA
ATOM     21  N   LIG d   1       5.297  -7.713  -6.136  0.00  0.00    -0.043 NA
BRANCH  18  22
ATOM     22  C   LIG d   1       6.389 -10.190  -3.700  0.00  0.00     0.021 A 
ATOM     23  C   LIG d   1       6.452  -9.854  -2.346  0.00  0.00    -0.049 A 
ATOM     24  C   LIG d   1       7.066 -10.706  -1.454  0.00  0.00    -0.040 A 
ATOM     25  H   LIG d   1       6.018  -8.928  -1.998  0.00  0.00     0.062 H 
ATOM     26  C   LIG d   1       7.623 -11.899  -1.901  0.00  0.00     0.029 A 
ATOM     27  H   LIG d   1       7.115 -10.446  -0.406  0.00  0.00     0.064 H 
ATOM     28  C   LIG d   1       7.562 -12.236  -3.249  0.00  0.00    -0.040 A 
ATOM     29  C   LIG d   1       6.945 -11.391  -4.145  0.00  0.00    -0.049 A 
ATOM     30  H   LIG d   1       7.996 -13.164  -3.593  0.00  0.00     0.064 H 
ATOM     31  H   LIG d   1       6.895 -11.655  -5.191  0.00  0.00     0.062 H 
BRANCH  26  32
ATOM     32  N   LIG d   1       8.245 -12.758  -0.996  0.00  0.00    -0.336 N 
BRANCH  32  33
ATOM     33  C   LIG d   1       9.348 -12.273  -0.163  0.00  0.00     0.000 C 
ATOM     34  H   LIG d   1       9.077 -11.311   0.274  0.00  0.00     0.043 H 
ATOM     35  H   LIG d   1       9.546 -12.990   0.633  0.00  0.00     0.043 H 
ATOM     36  H   LIG d   1      10.241 -12.156  -0.776  0.00  0.00     0.043 H 
ENDBRANCH  32  33
BRANCH  32  37
ATOM     37  C   LIG d   1       7.794 -14.148  -0.877  0.00  0.00     0.000 C 
ATOM     38  H   LIG d   1       7.528 -14.529  -1.863  0.00  0.00     0.043 H 
ATOM     39  H   LIG d   1       8.596 -14.755  -0.456  0.00  0.00     0.043 H 
ATOM     40  H   LIG d   1       6.923 -14.192  -0.223  0.00  0.00     0.043 H 
ENDBRANCH  32  37
ENDBRANCH  26  32
ENDBRANCH  18  22
ENDBRANCH   1  17
BRANCH  11  41
ATOM     41  N   LIG d   1       8.804  -3.570  -3.644  0.00  0.00     0.233 N 
ATOM     42  H   LIG d   1       9.531  -2.849  -3.716  0.00  0.00     0.202 HD
ATOM     43  H   LIG d   1       8.590  -3.742  -2.655  0.00  0.00     0.202 HD
BRANCH  41  44
ATOM     44  C   LIG d   1       7.585  -3.104  -4.332  0.00  0.00    -0.033 C 
ATOM     45  H   LIG d   1       7.845  -2.719  -5.318  0.00  0.00     0.081 H 
ATOM     46  H   LIG d   1       6.884  -3.932  -4.438  0.00  0.00     0.081 H 
BRANCH  44  47
ATOM     47  C   LIG d   1       6.938  -1.991  -3.505  0.00  0.00    -0.009 C 
ATOM     48  H   LIG d   1       7.379  -1.975  -2.508  0.00  0.00     0.032 H 
ATOM     49  H   LIG d   1       7.106  -1.031  -3.993  0.00  0.00     0.032 H 
BRANCH  47  50
ATOM     50  C   LIG d   1       5.434  -2.249  -3.392  0.00  0.00    -0.023 C 
ATOM     51  H   LIG d   1       5.071  -2.694  -4.318  0.00  0.00     0.032 H 
ATOM     52  H   LIG d   1       5.243  -2.929  -2.562  0.00  0.00     0.032 H 
BRANCH  50  53
ATOM     53  C   LIG d   1       4.718  -0.946  -3.147  0.00  0.00    -0.047 A 
ATOM     54  C   LIG d   1       3.811  -0.470  -4.077  0.00  0.00    -0.059 A 
ATOM     55  C   LIG d   1       3.154   0.725  -3.852  0.00  0.00    -0.061 A 
ATOM     56  H   LIG d   1       3.616  -1.033  -4.977  0.00  0.00     0.062 H 
ATOM     57  C   LIG d   1       3.404   1.445  -2.698  0.00  0.00    -0.062 A 
ATOM     58  H   LIG d   1       2.446   1.096  -4.578  0.00  0.00     0.062 H 
ATOM     59  C   LIG d   1       4.310   0.969  -1.769  0.00  0.00    -0.061 A 
ATOM     60  H   LIG d   1       2.890   2.379  -2.523  0.00  0.00     0.062 H 
ATOM     61  C   LIG d   1       4.963  -0.229  -1.992  0.00  0.00    -0.059 A 
ATOM     62  H   LIG d   1       4.504   1.531  -0.867  0.00  0.00     0.062 H 
ATOM     63  H   LIG d   1       5.668  -0.603  -1.263  0.00  0.00     0.062 H 
ENDBRANCH  50  53
ENDBRANCH  47  50
ENDBRANCH  44  47
ENDBRANCH  41  44
ENDBRANCH  11  41
TORSDOF 10
ENDMDL
MODEL 10
REMARK VINA RESULT:      -6.2      7.372     12.037
REMARK  10 active torsions:
REMARK  status: ('A' for Active; 'I' for Inactive)
REMARK    1  A    between atoms: C_1  and  N_2 
REMARK    2  A    between atoms: N_2  and  C_3 
REMARK    3  A    between atoms: N_2  and  C_4 
REMARK    4  A    between atoms: C_7  and  C_10 
REMARK    5  A    between atoms: N_14  and  C_15 
REMARK    6  A    between atoms: C_25  and  N_61 
REMARK    7  A    between atoms: C_27  and  C_28 
REMARK    8  A    between atoms: C_27  and  N_61 
REMARK    9  A    between atoms: C_28  and  C_29 
REMARK   10  A    between atoms: C_29  and  C_30 
ROOT
ATOM      1  C   LIG d   1       5.555   0.039  -8.837  0.00  0.00     0.108 C 
ATOM      2  H   LIG d   1       5.577  -0.795  -9.540  0.00  0.00     0.060 H 
ATOM      3  C   LIG d   1       5.733   1.371  -9.582  0.00  0.00     0.073 C 
ATOM      4  O   LIG d   1       6.934   1.978  -9.116  0.00  0.00    -0.366 OA
ATOM      5  C   LIG d   1       7.313   1.405  -7.857  0.00  0.00     0.131 C 
ATOM      6  H   LIG d   1       6.958   1.986  -7.005  0.00  0.00     0.068 H 
ATOM      7  C   LIG d   1       6.753  -0.045  -7.874  0.00  0.00     0.115 C 
ATOM      8  H   LIG d   1       6.468  -0.397  -6.883  0.00  0.00     0.065 H 
ATOM      9  O   LIG d   1       7.796  -0.844  -8.464  0.00  0.00    -0.366 OA
ATOM     10  C   LIG d   1       9.026  -0.333  -7.886  0.00  0.00     0.093 C 
ATOM     11  C   LIG d   1       8.847   1.200  -7.842  0.00  0.00     0.030 C 
ATOM     12  H   LIG d   1       9.302   1.663  -8.717  0.00  0.00     0.090 H 
ATOM     13  H   LIG d   1       5.793   1.189 -10.655  0.00  0.00     0.058 H 
ATOM     14  H   LIG d   1       4.890   2.029  -9.367  0.00  0.00     0.058 H 
ATOM     15  H   LIG d   1       9.879  -0.599  -8.508  0.00  0.00     0.062 H 
ATOM     16  H   LIG d   1       9.154  -0.729  -6.877  0.00  0.00     0.062 H 
ENDROOT
BRANCH   1  17
ATOM     17  N   LIG d   1       4.297   0.038  -8.086  0.00  0.00    -0.217 N 
ATOM     18  C   LIG d   1       3.109  -0.491  -8.470  0.00  0.00     0.182 A 
ATOM     19  N   LIG d   1       2.254  -0.266  -7.494  0.00  0.00    -0.108 NA
ATOM     20  N   LIG d   1       2.825   0.364  -6.532  0.00  0.00    -0.023 NA
ATOM     21  N   LIG d   1       4.063   0.587  -6.813  0.00  0.00    -0.043 NA
BRANCH  18  22
ATOM     22  C   LIG d   1       2.826  -1.187  -9.743  0.00  0.00     0.021 A 
ATOM     23  C   LIG d   1       2.876  -2.581  -9.804  0.00  0.00    -0.049 A 
ATOM     24  C   LIG d   1       2.612  -3.228 -10.992  0.00  0.00    -0.040 A 
ATOM     25  H   LIG d   1       3.120  -3.152  -8.921  0.00  0.00     0.062 H 
ATOM     26  C   LIG d   1       2.297  -2.493 -12.129  0.00  0.00     0.029 A 
ATOM     27  H   LIG d   1       2.651  -4.306 -11.040  0.00  0.00     0.064 H 
ATOM     28  C   LIG d   1       2.246  -1.104 -12.072  0.00  0.00    -0.040 A 
ATOM     29  C   LIG d   1       2.504  -0.453 -10.886  0.00  0.00    -0.049 A 
ATOM     30  H   LIG d   1       2.000  -0.536 -12.958  0.00  0.00     0.064 H 
ATOM     31  H   LIG d   1       2.460   0.626 -10.840  0.00  0.00     0.062 H 
BRANCH  26  32
ATOM     32  N   LIG d   1       2.031  -3.149 -13.330  0.00  0.00    -0.336 N 
BRANCH  32  33
ATOM     33  C   LIG d   1       1.706  -2.377 -14.532  0.00  0.00     0.000 C 
ATOM     34  H   LIG d   1       1.511  -1.340 -14.255  0.00  0.00     0.043 H 
ATOM     35  H   LIG d   1       2.544  -2.417 -15.228  0.00  0.00     0.043 H 
ATOM     36  H   LIG d   1       0.820  -2.798 -15.006  0.00  0.00     0.043 H 
ENDBRANCH  32  33
BRANCH  32  37
ATOM     37  C   LIG d   1       2.076  -4.613 -13.392  0.00  0.00     0.000 C 
ATOM     38  H   LIG d   1       3.081  -4.934 -13.663  0.00  0.00     0.043 H 
ATOM     39  H   LIG d   1       1.812  -5.026 -12.418  0.00  0.00     0.043 H 
ATOM     40  H   LIG d   1       1.367  -4.967 -14.140  0.00  0.00     0.043 H 
ENDBRANCH  32  37
ENDBRANCH  26  32
ENDBRANCH  18  22
ENDBRANCH   1  17
BRANCH  11  41
ATOM     41  N   LIG d   1       9.422   1.752  -6.601  0.00  0.00     0.233 N 
ATOM     42  H   LIG d   1       8.824   2.512  -6.259  0.00  0.00     0.202 HD
ATOM     43  H   LIG d   1      10.362   2.118  -6.797  0.00  0.00     0.202 HD
BRANCH  41  44
ATOM     44  C   LIG d   1       9.514   0.703  -5.568  0.00  0.00    -0.033 C 
ATOM     45  H   LIG d   1       9.433  -0.279  -6.035  0.00  0.00     0.081 H 
ATOM     46  H   LIG d   1      10.470   0.781  -5.050  0.00  0.00     0.081 H 
BRANCH  44  47
ATOM     47  C   LIG d   1       8.374   0.887  -4.565  0.00  0.00    -0.009 C 
ATOM     48  H   LIG d   1       8.775   1.261  -3.623  0.00  0.00     0.032 H 
ATOM     49  H   LIG d   1       7.652   1.600  -4.962  0.00  0.00     0.032 H 
BRANCH  47  50
ATOM     50  C   LIG d   1       7.683  -0.459  -4.326  0.00  0.00    -0.023 C 
ATOM     51  H   LIG d   1       7.383  -0.887  -5.282  0.00  0.00     0.032 H 
ATOM     52  H   LIG d   1       8.372  -1.136  -3.824  0.00  0.00     0.032 H 
BRANCH  50  53
ATOM     53  C   LIG d   1       6.465  -0.251  -3.464  0.00  0.00    -0.047 A 
ATOM     54  C   LIG d   1       6.038   1.031  -3.168  0.00  0.00    -0.059 A 
ATOM     55  C   LIG d   1       4.921   1.221  -2.377  0.00  0.00    -0.061 A 
ATOM     56  H   LIG d   1       6.578   1.882  -3.555  0.00  0.00     0.062 H 
ATOM     57  C   LIG d   1       4.230   0.130  -1.882  0.00  0.00    -0.062 A 
ATOM     58  H   LIG d   1       4.587   2.222  -2.146  0.00  0.00     0.062 H 
ATOM     59  C   LIG d   1       4.656  -1.151  -2.179  0.00  0.00    -0.061 A 
ATOM     60  H   LIG d   1       3.356   0.280  -1.264  0.00  0.00     0.062 H 
ATOM     61  C   LIG d   1       5.771  -1.341  -2.974  0.00  0.00    -0.059 A 
ATOM     62  H   LIG d   1       4.116  -2.003  -1.793  0.00  0.00     0.062 H 
ATOM     63  H   LIG d   1       6.102  -2.342  -3.209  0.00  0.00     0.062 H 
ENDBRANCH  50  53
ENDBRANCH  47  50
ENDBRANCH  44  47
ENDBRANCH  41  44
ENDBRANCH  11  41
TORSDOF 10
ENDMDL
