MODEL 1
REMARK VINA RESULT:      -4.5      0.000      0.000
REMARK  7 active torsions:
REMARK  status: ('A' for Active; 'I' for Inactive)
REMARK    1  A    between atoms: C_1  and  N_2 
REMARK    2  A    between atoms: N_2  and  C_3 
REMARK    3  A    between atoms: C_3  and  N_4 
REMARK    4  A    between atoms: N_4  and  C_5 
REMARK    5  A    between atoms: C_5  and  C_6 
REMARK    6  A    between atoms: C_6  and  C_7 
REMARK    7  A    between atoms: C_7  and  C_8 
ROOT
ATOM      1  C   LIG d   1       9.165   8.723  -0.891  0.00  0.00    -0.032 C 
ATOM      2  H   LIG d   1       9.750   8.694   0.028  0.00  0.00     0.028 H 
ATOM      3  H   LIG d   1       8.107   8.805  -0.644  0.00  0.00     0.028 H 
ENDROOT
BRANCH   1   4
ATOM      4  C   LIG d   1       9.588   9.932  -1.727  0.00  0.00     0.011 C 
ATOM      5  H   LIG d   1      10.109   9.591  -2.622  0.00  0.00     0.046 H 
ATOM      6  H   LIG d   1      10.253  10.565  -1.140  0.00  0.00     0.046 H 
BRANCH   4   7
ATOM      7  N   LIG d   1       8.401  10.697  -2.116  0.00  0.00    -0.327 N 
ATOM      8  H   LIG d   1       7.564  10.565  -1.645  0.00  0.00     0.148 HD
BRANCH   7   9
ATOM      9  C   LIG d   1       8.473  11.586  -3.127  0.00  0.00     0.130 C 
ATOM     10  S   LIG d   1       9.298  11.175  -4.569  0.00  0.00    -0.019 SA
BRANCH   9  11
ATOM     11  N   LIG d   1       7.895  12.796  -3.002  0.00  0.00    -0.330 N 
ATOM     12  H   LIG d   1       6.938  12.864  -2.858  0.00  0.00     0.147 HD
BRANCH  11  13
ATOM     13  C   LIG d   1       8.712  14.010  -3.083  0.00  0.00    -0.001 C 
ATOM     14  H   LIG d   1       9.697  13.814  -2.658  0.00  0.00     0.043 H 
ATOM     15  H   LIG d   1       8.820  14.306  -4.127  0.00  0.00     0.043 H 
ATOM     16  H   LIG d   1       8.228  14.811  -2.525  0.00  0.00     0.043 H 
ENDBRANCH  11  13
ENDBRANCH   9  11
ENDBRANCH   7   9
ENDBRANCH   4   7
ENDBRANCH   1   4
BRANCH   1  17
ATOM     17  C   LIG d   1       9.405   7.440  -1.690  0.00  0.00    -0.007 C 
ATOM     18  H   LIG d   1       8.448   6.973  -1.923  0.00  0.00     0.033 H 
ATOM     19  H   LIG d   1       9.927   7.682  -2.615  0.00  0.00     0.033 H 
BRANCH  17  20
ATOM     20  C   LIG d   1      10.243   6.489  -0.874  0.00  0.00     0.059 A 
ATOM     21  C   LIG d   1      10.837   5.369  -1.328  0.00  0.00     0.024 A 
ATOM     22  N   LIG d   1      11.493   4.810  -0.265  0.00  0.00    -0.351 N 
ATOM     23  H   LIG d   1      10.802   4.986  -2.337  0.00  0.00     0.083 H 
ATOM     24  C   LIG d   1      11.276   5.608   0.802  0.00  0.00     0.094 A 
ATOM     25  H   LIG d   1      12.015   3.992  -0.275  0.00  0.00     0.166 HD
ATOM     26  H   LIG d   1      11.659   5.444   1.800  0.00  0.00     0.103 H 
ATOM     27  N   LIG d   1      10.532   6.613   0.429  0.00  0.00    -0.241 NA
ENDBRANCH  17  20
ENDBRANCH   1  17
TORSDOF 7
ENDMDL
MODEL 2
REMARK VINA RESULT:      -4.4     11.308     12.921
REMARK  7 active torsions:
REMARK  status: ('A' for Active; 'I' for Inactive)
REMARK    1  A    between atoms: C_1  and  N_2 
REMARK    2  A    between atoms: N_2  and  C_3 
REMARK    3  A    between atoms: C_3  and  N_4 
REMARK    4  A    between atoms: N_4  and  C_5 
REMARK    5  A    between atoms: C_5  and  C_6 
REMARK    6  A    between atoms: C_6  and  C_7 
REMARK    7  A    between atoms: C_7  and  C_8 
ROOT
ATOM      1  C   LIG d   1       3.399  -0.033  -6.405  0.00  0.00    -0.032 C 
ATOM      2  H   LIG d   1       4.202   0.677  -6.601  0.00  0.00     0.028 H 
ATOM      3  H   LIG d   1       3.827  -0.995  -6.123  0.00  0.00     0.028 H 
ENDROOT
BRANCH   1   4
ATOM      4  C   LIG d   1       2.523   0.489  -5.265  0.00  0.00     0.011 C 
ATOM      5  H   LIG d   1       1.540   0.755  -5.654  0.00  0.00     0.046 H 
ATOM      6  H   LIG d   1       2.988   1.370  -4.824  0.00  0.00     0.046 H 
BRANCH   4   7
ATOM      7  N   LIG d   1       2.379  -0.552  -4.244  0.00  0.00    -0.327 N 
ATOM      8  H   LIG d   1       1.732  -1.264  -4.366  0.00  0.00     0.148 HD
BRANCH   7   9
ATOM      9  C   LIG d   1       3.145  -0.519  -3.135  0.00  0.00     0.130 C 
ATOM     10  S   LIG d   1       3.866  -1.956  -2.550  0.00  0.00    -0.019 SA
BRANCH   9  11
ATOM     11  N   LIG d   1       3.345   0.647  -2.489  0.00  0.00    -0.330 N 
ATOM     12  H   LIG d   1       2.681   1.352  -2.546  0.00  0.00     0.147 HD
BRANCH  11  13
ATOM     13  C   LIG d   1       4.563   0.848  -1.701  0.00  0.00    -0.001 C 
ATOM     14  H   LIG d   1       4.862   1.895  -1.756  0.00  0.00     0.043 H 
ATOM     15  H   LIG d   1       4.372   0.580  -0.662  0.00  0.00     0.043 H 
ATOM     16  H   LIG d   1       5.360   0.220  -2.098  0.00  0.00     0.043 H 
ENDBRANCH  11  13
ENDBRANCH   9  11
ENDBRANCH   7   9
ENDBRANCH   4   7
ENDBRANCH   1   4
BRANCH   1  17
ATOM     17  C   LIG d   1       2.548  -0.203  -7.666  0.00  0.00    -0.007 C 
ATOM     18  H   LIG d   1       2.623  -1.232  -8.019  0.00  0.00     0.033 H 
ATOM     19  H   LIG d   1       1.509   0.029  -7.436  0.00  0.00     0.033 H 
BRANCH  17  20
ATOM     20  C   LIG d   1       3.046   0.733  -8.737  0.00  0.00     0.059 A 
ATOM     21  C   LIG d   1       3.051   2.079  -8.673  0.00  0.00     0.024 A 
ATOM     22  N   LIG d   1       3.584   2.530  -9.850  0.00  0.00    -0.351 N 
ATOM     23  H   LIG d   1       2.701   2.685  -7.850  0.00  0.00     0.083 H 
ATOM     24  C   LIG d   1       3.886   1.444 -10.593  0.00  0.00     0.094 A 
ATOM     25  H   LIG d   1       3.719   3.456 -10.103  0.00  0.00     0.166 HD
ATOM     26  H   LIG d   1       4.324   1.459 -11.581  0.00  0.00     0.103 H 
ATOM     27  N   LIG d   1       3.566   0.373  -9.919  0.00  0.00    -0.241 NA
ENDBRANCH  17  20
ENDBRANCH   1  17
TORSDOF 7
ENDMDL
MODEL 3
REMARK VINA RESULT:      -4.4      9.937     12.036
REMARK  7 active torsions:
REMARK  status: ('A' for Active; 'I' for Inactive)
REMARK    1  A    between atoms: C_1  and  N_2 
REMARK    2  A    between atoms: N_2  and  C_3 
REMARK    3  A    between atoms: C_3  and  N_4 
REMARK    4  A    between atoms: N_4  and  C_5 
REMARK    5  A    between atoms: C_5  and  C_6 
REMARK    6  A    between atoms: C_6  and  C_7 
REMARK    7  A    between atoms: C_7  and  C_8 
ROOT
ATOM      1  C   LIG d   1       6.055   1.206  -3.061  0.00  0.00    -0.032 C 
ATOM      2  H   LIG d   1       6.712   1.704  -2.347  0.00  0.00     0.028 H 
ATOM      3  H   LIG d   1       5.606   1.949  -3.719  0.00  0.00     0.028 H 
ENDROOT
BRANCH   1   4
ATOM      4  C   LIG d   1       6.867   0.212  -3.892  0.00  0.00     0.011 C 
ATOM      5  H   LIG d   1       7.788   0.687  -4.231  0.00  0.00     0.046 H 
ATOM      6  H   LIG d   1       6.282  -0.102  -4.757  0.00  0.00     0.046 H 
BRANCH   4   7
ATOM      7  N   LIG d   1       7.194  -0.958  -3.073  0.00  0.00    -0.327 N 
ATOM      8  H   LIG d   1       7.360  -0.853  -2.124  0.00  0.00     0.148 HD
BRANCH   7   9
ATOM      9  C   LIG d   1       7.262  -2.180  -3.639  0.00  0.00     0.130 C 
ATOM     10  S   LIG d   1       5.902  -2.822  -4.455  0.00  0.00    -0.019 SA
BRANCH   9  11
ATOM     11  N   LIG d   1       8.402  -2.895  -3.563  0.00  0.00    -0.330 N 
ATOM     12  H   LIG d   1       8.582  -3.437  -2.779  0.00  0.00     0.147 HD
BRANCH  11  13
ATOM     13  C   LIG d   1       9.368  -2.852  -4.663  0.00  0.00    -0.001 C 
ATOM     14  H   LIG d   1      10.362  -2.644  -4.266  0.00  0.00     0.043 H 
ATOM     15  H   LIG d   1       9.376  -3.814  -5.177  0.00  0.00     0.043 H 
ATOM     16  H   LIG d   1       9.085  -2.068  -5.365  0.00  0.00     0.043 H 
ENDBRANCH  11  13
ENDBRANCH   9  11
ENDBRANCH   7   9
ENDBRANCH   4   7
ENDBRANCH   1   4
BRANCH   1  17
ATOM     17  C   LIG d   1       4.953   0.460  -2.305  0.00  0.00    -0.007 C 
ATOM     18  H   LIG d   1       5.336  -0.500  -1.960  0.00  0.00     0.033 H 
ATOM     19  H   LIG d   1       4.635   1.054  -1.449  0.00  0.00     0.033 H 
BRANCH  17  20
ATOM     20  C   LIG d   1       3.780   0.233  -3.223  0.00  0.00     0.059 A 
ATOM     21  C   LIG d   1       2.921  -0.803  -3.169  0.00  0.00     0.024 A 
ATOM     22  N   LIG d   1       2.014  -0.619  -4.177  0.00  0.00    -0.351 N 
ATOM     23  H   LIG d   1       2.945  -1.621  -2.465  0.00  0.00     0.083 H 
ATOM     24  C   LIG d   1       2.351   0.523  -4.813  0.00  0.00     0.094 A 
ATOM     25  H   LIG d   1       1.270  -1.202  -4.395  0.00  0.00     0.166 HD
ATOM     26  H   LIG d   1       1.830   0.949  -5.659  0.00  0.00     0.103 H 
ATOM     27  N   LIG d   1       3.404   1.030  -4.234  0.00  0.00    -0.241 NA
ENDBRANCH  17  20
ENDBRANCH   1  17
TORSDOF 7
ENDMDL
MODEL 4
REMARK VINA RESULT:      -4.3     10.276     11.412
REMARK  7 active torsions:
REMARK  status: ('A' for Active; 'I' for Inactive)
REMARK    1  A    between atoms: C_1  and  N_2 
REMARK    2  A    between atoms: N_2  and  C_3 
REMARK    3  A    between atoms: C_3  and  N_4 
REMARK    4  A    between atoms: N_4  and  C_5 
REMARK    5  A    between atoms: C_5  and  C_6 
REMARK    6  A    between atoms: C_6  and  C_7 
REMARK    7  A    between atoms: C_7  and  C_8 
ROOT
ATOM      1  C   LIG d   1       2.672   0.708  -5.569  0.00  0.00    -0.032 C 
ATOM      2  H   LIG d   1       3.377   1.459  -5.213  0.00  0.00     0.028 H 
ATOM      3  H   LIG d   1       1.836   1.201  -6.064  0.00  0.00     0.028 H 
ENDROOT
BRANCH   1   4
ATOM      4  C   LIG d   1       3.375  -0.222  -6.560  0.00  0.00     0.011 C 
ATOM      5  H   LIG d   1       2.931  -0.101  -7.549  0.00  0.00     0.046 H 
ATOM      6  H   LIG d   1       3.259  -1.255  -6.235  0.00  0.00     0.046 H 
BRANCH   4   7
ATOM      7  N   LIG d   1       4.800   0.115  -6.620  0.00  0.00    -0.327 N 
ATOM      8  H   LIG d   1       5.133   0.683  -7.332  0.00  0.00     0.148 HD
BRANCH   7   9
ATOM      9  C   LIG d   1       5.645  -0.364  -5.686  0.00  0.00     0.130 C 
ATOM     10  S   LIG d   1       5.915  -2.049  -5.561  0.00  0.00    -0.019 SA
BRANCH   9  11
ATOM     11  N   LIG d   1       6.277   0.484  -4.851  0.00  0.00    -0.330 N 
ATOM     12  H   LIG d   1       6.045   1.426  -4.850  0.00  0.00     0.147 HD
BRANCH  11  13
ATOM     13  C   LIG d   1       7.313  -0.017  -3.945  0.00  0.00    -0.001 C 
ATOM     14  H   LIG d   1       8.256  -0.105  -4.485  0.00  0.00     0.043 H 
ATOM     15  H   LIG d   1       7.435   0.677  -3.113  0.00  0.00     0.043 H 
ATOM     16  H   LIG d   1       7.020  -0.995  -3.563  0.00  0.00     0.043 H 
ENDBRANCH  11  13
ENDBRANCH   9  11
ENDBRANCH   7   9
ENDBRANCH   4   7
ENDBRANCH   1   4
BRANCH   1  17
ATOM     17  C   LIG d   1       2.154  -0.109  -4.383  0.00  0.00    -0.007 C 
ATOM     18  H   LIG d   1       1.187   0.285  -4.066  0.00  0.00     0.033 H 
ATOM     19  H   LIG d   1       2.042  -1.151  -4.682  0.00  0.00     0.033 H 
BRANCH  17  20
ATOM     20  C   LIG d   1       3.134  -0.015  -3.242  0.00  0.00     0.059 A 
ATOM     21  C   LIG d   1       3.635  -1.051  -2.543  0.00  0.00     0.024 A 
ATOM     22  N   LIG d   1       4.482  -0.524  -1.606  0.00  0.00    -0.351 N 
ATOM     23  H   LIG d   1       3.411  -2.097  -2.693  0.00  0.00     0.083 H 
ATOM     24  C   LIG d   1       4.468   0.817  -1.765  0.00  0.00     0.094 A 
ATOM     25  H   LIG d   1       4.995  -1.021  -0.949  0.00  0.00     0.166 HD
ATOM     26  H   LIG d   1       5.034   1.526  -1.178  0.00  0.00     0.103 H 
ATOM     27  N   LIG d   1       3.664   1.113  -2.749  0.00  0.00    -0.241 NA
ENDBRANCH  17  20
ENDBRANCH   1  17
TORSDOF 7
ENDMDL
MODEL 5
REMARK VINA RESULT:      -4.3      1.295      1.548
REMARK  7 active torsions:
REMARK  status: ('A' for Active; 'I' for Inactive)
REMARK    1  A    between atoms: C_1  and  N_2 
REMARK    2  A    between atoms: N_2  and  C_3 
REMARK    3  A    between atoms: C_3  and  N_4 
REMARK    4  A    between atoms: N_4  and  C_5 
REMARK    5  A    between atoms: C_5  and  C_6 
REMARK    6  A    between atoms: C_6  and  C_7 
REMARK    7  A    between atoms: C_7  and  C_8 
ROOT
ATOM      1  C   LIG d   1      10.041   8.717  -1.718  0.00  0.00    -0.032 C 
ATOM      2  H   LIG d   1      10.076   9.056  -2.753  0.00  0.00     0.028 H 
ATOM      3  H   LIG d   1      11.055   8.652  -1.323  0.00  0.00     0.028 H 
ENDROOT
BRANCH   1   4
ATOM      4  C   LIG d   1       9.232   9.710  -0.882  0.00  0.00     0.011 C 
ATOM      5  H   LIG d   1       9.911  10.373  -0.346  0.00  0.00     0.046 H 
ATOM      6  H   LIG d   1       8.617   9.165  -0.165  0.00  0.00     0.046 H 
BRANCH   4   7
ATOM      7  N   LIG d   1       8.370  10.502  -1.763  0.00  0.00    -0.327 N 
ATOM      8  H   LIG d   1       7.406  10.445  -1.677  0.00  0.00     0.148 HD
BRANCH   7   9
ATOM      9  C   LIG d   1       8.919  11.310  -2.693  0.00  0.00     0.130 C 
ATOM     10  S   LIG d   1      10.078  12.481  -2.232  0.00  0.00    -0.019 SA
BRANCH   9  11
ATOM     11  N   LIG d   1       8.553  11.194  -3.985  0.00  0.00    -0.330 N 
ATOM     12  H   LIG d   1       7.720  11.586  -4.290  0.00  0.00     0.147 HD
BRANCH  11  13
ATOM     13  C   LIG d   1       9.415  10.476  -4.928  0.00  0.00    -0.001 C 
ATOM     14  H   LIG d   1      10.443  10.820  -4.814  0.00  0.00     0.043 H 
ATOM     15  H   LIG d   1       9.365   9.407  -4.724  0.00  0.00     0.043 H 
ATOM     16  H   LIG d   1       9.078  10.669  -5.946  0.00  0.00     0.043 H 
ENDBRANCH  11  13
ENDBRANCH   9  11
ENDBRANCH   7   9
ENDBRANCH   4   7
ENDBRANCH   1   4
BRANCH   1  17
ATOM     17  C   LIG d   1       9.380   7.338  -1.655  0.00  0.00    -0.007 C 
ATOM     18  H   LIG d   1       8.406   7.425  -1.172  0.00  0.00     0.033 H 
ATOM     19  H   LIG d   1       9.252   6.951  -2.665  0.00  0.00     0.033 H 
BRANCH  17  20
ATOM     20  C   LIG d   1      10.252   6.398  -0.863  0.00  0.00     0.059 A 
ATOM     21  C   LIG d   1      10.897   5.320  -1.347  0.00  0.00     0.024 A 
ATOM     22  N   LIG d   1      11.568   4.754  -0.298  0.00  0.00    -0.351 N 
ATOM     23  H   LIG d   1      10.885   4.968  -2.369  0.00  0.00     0.083 H 
ATOM     24  C   LIG d   1      11.309   5.508   0.793  0.00  0.00     0.094 A 
ATOM     25  H   LIG d   1      12.124   3.961  -0.330  0.00  0.00     0.166 HD
ATOM     26  H   LIG d   1      11.693   5.327   1.788  0.00  0.00     0.103 H 
ATOM     27  N   LIG d   1      10.526   6.491   0.446  0.00  0.00    -0.241 NA
ENDBRANCH  17  20
ENDBRANCH   1  17
TORSDOF 7
ENDMDL
MODEL 6
REMARK VINA RESULT:      -4.3      9.223     11.125
REMARK  7 active torsions:
REMARK  status: ('A' for Active; 'I' for Inactive)
REMARK    1  A    between atoms: C_1  and  N_2 
REMARK    2  A    between atoms: N_2  and  C_3 
REMARK    3  A    between atoms: C_3  and  N_4 
REMARK    4  A    between atoms: N_4  and  C_5 
REMARK    5  A    between atoms: C_5  and  C_6 
REMARK    6  A    between atoms: C_6  and  C_7 
REMARK    7  A    between atoms: C_7  and  C_8 
ROOT
ATOM      1  C   LIG d   1       4.298  -1.036  -2.142  0.00  0.00    -0.032 C 
ATOM      2  H   LIG d   1       4.719  -1.948  -2.565  0.00  0.00     0.028 H 
ATOM      3  H   LIG d   1       4.165  -1.163  -1.067  0.00  0.00     0.028 H 
ENDROOT
BRANCH   1   4
ATOM      4  C   LIG d   1       5.246   0.135  -2.404  0.00  0.00     0.011 C 
ATOM      5  H   LIG d   1       5.506   0.611  -1.458  0.00  0.00     0.046 H 
ATOM      6  H   LIG d   1       4.757   0.861  -3.053  0.00  0.00     0.046 H 
BRANCH   4   7
ATOM      7  N   LIG d   1       6.464  -0.359  -3.053  0.00  0.00    -0.327 N 
ATOM      8  H   LIG d   1       6.855  -1.200  -2.772  0.00  0.00     0.148 HD
BRANCH   7   9
ATOM      9  C   LIG d   1       7.038   0.357  -4.040  0.00  0.00     0.130 C 
ATOM     10  S   LIG d   1       7.719  -0.442  -5.392  0.00  0.00    -0.019 SA
BRANCH   9  11
ATOM     11  N   LIG d   1       7.076   1.702  -3.962  0.00  0.00    -0.330 N 
ATOM     12  H   LIG d   1       6.311   2.189  -3.617  0.00  0.00     0.147 HD
BRANCH  11  13
ATOM     13  C   LIG d   1       8.272   2.427  -4.397  0.00  0.00    -0.001 C 
ATOM     14  H   LIG d   1       7.975   3.344  -4.907  0.00  0.00     0.043 H 
ATOM     15  H   LIG d   1       8.882   2.676  -3.529  0.00  0.00     0.043 H 
ATOM     16  H   LIG d   1       8.848   1.802  -5.080  0.00  0.00     0.043 H 
ENDBRANCH  11  13
ENDBRANCH   9  11
ENDBRANCH   7   9
ENDBRANCH   4   7
ENDBRANCH   1   4
BRANCH   1  17
ATOM     17  C   LIG d   1       2.943  -0.751  -2.793  0.00  0.00    -0.007 C 
ATOM     18  H   LIG d   1       2.318  -1.643  -2.738  0.00  0.00     0.033 H 
ATOM     19  H   LIG d   1       2.453   0.069  -2.268  0.00  0.00     0.033 H 
BRANCH  17  20
ATOM     20  C   LIG d   1       3.150  -0.370  -4.237  0.00  0.00     0.059 A 
ATOM     21  C   LIG d   1       2.557   0.655  -4.878  0.00  0.00     0.024 A 
ATOM     22  N   LIG d   1       3.024   0.642  -6.164  0.00  0.00    -0.351 N 
ATOM     23  H   LIG d   1       1.849   1.354  -4.457  0.00  0.00     0.083 H 
ATOM     24  C   LIG d   1       3.885  -0.393  -6.265  0.00  0.00     0.094 A 
ATOM     25  H   LIG d   1       2.780   1.259  -6.871  0.00  0.00     0.166 HD
ATOM     26  H   LIG d   1       4.428  -0.676  -7.156  0.00  0.00     0.103 H 
ATOM     27  N   LIG d   1       3.959  -0.991  -5.107  0.00  0.00    -0.241 NA
ENDBRANCH  17  20
ENDBRANCH   1  17
TORSDOF 7
ENDMDL
MODEL 7
REMARK VINA RESULT:      -4.2      9.223     11.059
REMARK  7 active torsions:
REMARK  status: ('A' for Active; 'I' for Inactive)
REMARK    1  A    between atoms: C_1  and  N_2 
REMARK    2  A    between atoms: N_2  and  C_3 
REMARK    3  A    between atoms: C_3  and  N_4 
REMARK    4  A    between atoms: N_4  and  C_5 
REMARK    5  A    between atoms: C_5  and  C_6 
REMARK    6  A    between atoms: C_6  and  C_7 
REMARK    7  A    between atoms: C_7  and  C_8 
ROOT
ATOM      1  C   LIG d   1       6.073  -2.120  -3.653  0.00  0.00    -0.032 C 
ATOM      2  H   LIG d   1       5.594  -2.256  -4.623  0.00  0.00     0.028 H 
ATOM      3  H   LIG d   1       6.231  -3.093  -3.187  0.00  0.00     0.028 H 
ENDROOT
BRANCH   1   4
ATOM      4  C   LIG d   1       7.420  -1.420  -3.842  0.00  0.00     0.011 C 
ATOM      5  H   LIG d   1       7.710  -1.467  -4.891  0.00  0.00     0.046 H 
ATOM      6  H   LIG d   1       8.176  -1.918  -3.235  0.00  0.00     0.046 H 
BRANCH   4   7
ATOM      7  N   LIG d   1       7.305  -0.019  -3.429  0.00  0.00    -0.327 N 
ATOM      8  H   LIG d   1       6.982   0.199  -2.541  0.00  0.00     0.148 HD
BRANCH   7   9
ATOM      9  C   LIG d   1       7.649   0.965  -4.283  0.00  0.00     0.130 C 
ATOM     10  S   LIG d   1       8.853   2.098  -3.843  0.00  0.00    -0.019 SA
BRANCH   9  11
ATOM     11  N   LIG d   1       7.043   1.057  -5.483  0.00  0.00    -0.330 N 
ATOM     12  H   LIG d   1       6.075   1.052  -5.540  0.00  0.00     0.147 HD
BRANCH  11  13
ATOM     13  C   LIG d   1       7.848   1.164  -6.703  0.00  0.00    -0.001 C 
ATOM     14  H   LIG d   1       8.905   1.077  -6.449  0.00  0.00     0.043 H 
ATOM     15  H   LIG d   1       7.573   0.365  -7.391  0.00  0.00     0.043 H 
ATOM     16  H   LIG d   1       7.665   2.129  -7.174  0.00  0.00     0.043 H 
ENDBRANCH  11  13
ENDBRANCH   9  11
ENDBRANCH   7   9
ENDBRANCH   4   7
ENDBRANCH   1   4
BRANCH   1  17
ATOM     17  C   LIG d   1       5.175  -1.265  -2.756  0.00  0.00    -0.007 C 
ATOM     18  H   LIG d   1       4.795  -1.874  -1.936  0.00  0.00     0.033 H 
ATOM     19  H   LIG d   1       5.751  -0.432  -2.354  0.00  0.00     0.033 H 
BRANCH  17  20
ATOM     20  C   LIG d   1       4.019  -0.732  -3.564  0.00  0.00     0.059 A 
ATOM     21  C   LIG d   1       2.713  -0.949  -3.315  0.00  0.00     0.024 A 
ATOM     22  N   LIG d   1       2.010  -0.288  -4.285  0.00  0.00    -0.351 N 
ATOM     23  H   LIG d   1       2.301  -1.534  -2.506  0.00  0.00     0.083 H 
ATOM     24  C   LIG d   1       2.911   0.311  -5.093  0.00  0.00     0.094 A 
ATOM     25  H   LIG d   1       1.045  -0.256  -4.375  0.00  0.00     0.166 HD
ATOM     26  H   LIG d   1       2.677   0.915  -5.958  0.00  0.00     0.103 H 
ATOM     27  N   LIG d   1       4.110   0.045  -4.653  0.00  0.00    -0.241 NA
ENDBRANCH  17  20
ENDBRANCH   1  17
TORSDOF 7
ENDMDL
MODEL 8
REMARK VINA RESULT:      -4.1     10.520     12.531
REMARK  7 active torsions:
REMARK  status: ('A' for Active; 'I' for Inactive)
REMARK    1  A    between atoms: C_1  and  N_2 
REMARK    2  A    between atoms: N_2  and  C_3 
REMARK    3  A    between atoms: C_3  and  N_4 
REMARK    4  A    between atoms: N_4  and  C_5 
REMARK    5  A    between atoms: C_5  and  C_6 
REMARK    6  A    between atoms: C_6  and  C_7 
REMARK    7  A    between atoms: C_7  and  C_8 
ROOT
ATOM      1  C   LIG d   1       4.686  -2.114  -2.611  0.00  0.00    -0.032 C 
ATOM      2  H   LIG d   1       3.995  -2.515  -3.353  0.00  0.00     0.028 H 
ATOM      3  H   LIG d   1       4.868  -2.865  -1.843  0.00  0.00     0.028 H 
ENDROOT
BRANCH   1   4
ATOM      4  C   LIG d   1       6.007  -1.747  -3.290  0.00  0.00     0.011 C 
ATOM      5  H   LIG d   1       6.839  -2.067  -2.662  0.00  0.00     0.046 H 
ATOM      6  H   LIG d   1       6.054  -0.668  -3.432  0.00  0.00     0.046 H 
BRANCH   4   7
ATOM      7  N   LIG d   1       6.090  -2.417  -4.591  0.00  0.00    -0.327 N 
ATOM      8  H   LIG d   1       6.650  -3.201  -4.696  0.00  0.00     0.148 HD
BRANCH   7   9
ATOM      9  C   LIG d   1       5.389  -1.941  -5.639  0.00  0.00     0.130 C 
ATOM     10  S   LIG d   1       5.799  -0.429  -6.328  0.00  0.00    -0.019 SA
BRANCH   9  11
ATOM     11  N   LIG d   1       4.365  -2.657  -6.145  0.00  0.00    -0.330 N 
ATOM     12  H   LIG d   1       3.569  -2.808  -5.611  0.00  0.00     0.147 HD
BRANCH  11  13
ATOM     13  C   LIG d   1       4.455  -3.205  -7.500  0.00  0.00    -0.001 C 
ATOM     14  H   LIG d   1       5.431  -2.969  -7.924  0.00  0.00     0.043 H 
ATOM     15  H   LIG d   1       4.326  -4.287  -7.464  0.00  0.00     0.043 H 
ATOM     16  H   LIG d   1       3.673  -2.767  -8.121  0.00  0.00     0.043 H 
ENDBRANCH  11  13
ENDBRANCH   9  11
ENDBRANCH   7   9
ENDBRANCH   4   7
ENDBRANCH   1   4
BRANCH   1  17
ATOM     17  C   LIG d   1       4.077  -0.866  -1.970  0.00  0.00    -0.007 C 
ATOM     18  H   LIG d   1       3.284  -1.161  -1.281  0.00  0.00     0.033 H 
ATOM     19  H   LIG d   1       4.850  -0.324  -1.425  0.00  0.00     0.033 H 
BRANCH  17  20
ATOM     20  C   LIG d   1       3.504   0.023  -3.045  0.00  0.00     0.059 A 
ATOM     21  C   LIG d   1       3.605   1.365  -3.098  0.00  0.00     0.024 A 
ATOM     22  N   LIG d   1       2.949   1.766  -4.230  0.00  0.00    -0.351 N 
ATOM     23  H   LIG d   1       4.106   2.002  -2.384  0.00  0.00     0.083 H 
ATOM     24  C   LIG d   1       2.470   0.655  -4.829  0.00  0.00     0.094 A 
ATOM     25  H   LIG d   1       2.847   2.678  -4.544  0.00  0.00     0.166 HD
ATOM     26  H   LIG d   1       1.903   0.630  -5.749  0.00  0.00     0.103 H 
ATOM     27  N   LIG d   1       2.810  -0.384  -4.117  0.00  0.00    -0.241 NA
ENDBRANCH  17  20
ENDBRANCH   1  17
TORSDOF 7
ENDMDL
MODEL 9
REMARK VINA RESULT:      -4.1      7.329      9.406
REMARK  7 active torsions:
REMARK  status: ('A' for Active; 'I' for Inactive)
REMARK    1  A    between atoms: C_1  and  N_2 
REMARK    2  A    between atoms: N_2  and  C_3 
REMARK    3  A    between atoms: C_3  and  N_4 
REMARK    4  A    between atoms: N_4  and  C_5 
REMARK    5  A    between atoms: C_5  and  C_6 
REMARK    6  A    between atoms: C_6  and  C_7 
REMARK    7  A    between atoms: C_7  and  C_8 
ROOT
ATOM      1  C   LIG d   1       7.012   0.623  -3.683  0.00  0.00    -0.032 C 
ATOM      2  H   LIG d   1       6.808   0.143  -4.640  0.00  0.00     0.028 H 
ATOM      3  H   LIG d   1       7.594  -0.051  -3.056  0.00  0.00     0.028 H 
ENDROOT
BRANCH   1   4
ATOM      4  C   LIG d   1       7.801   1.912  -3.917  0.00  0.00     0.011 C 
ATOM      5  H   LIG d   1       7.371   2.716  -3.319  0.00  0.00     0.046 H 
ATOM      6  H   LIG d   1       7.755   2.181  -4.972  0.00  0.00     0.046 H 
BRANCH   4   7
ATOM      7  N   LIG d   1       9.199   1.707  -3.526  0.00  0.00    -0.327 N 
ATOM      8  H   LIG d   1       9.513   0.818  -3.303  0.00  0.00     0.148 HD
BRANCH   7   9
ATOM      9  C   LIG d   1      10.045   2.755  -3.477  0.00  0.00     0.130 C 
ATOM     10  S   LIG d   1      10.256   3.751  -4.853  0.00  0.00    -0.019 SA
BRANCH   9  11
ATOM     11  N   LIG d   1      10.725   3.018  -2.344  0.00  0.00    -0.330 N 
ATOM     12  H   LIG d   1      11.006   2.291  -1.767  0.00  0.00     0.147 HD
BRANCH  11  13
ATOM     13  C   LIG d   1      11.041   4.403  -1.984  0.00  0.00    -0.001 C 
ATOM     14  H   LIG d   1      11.931   4.421  -1.354  0.00  0.00     0.043 H 
ATOM     15  H   LIG d   1      11.225   4.981  -2.889  0.00  0.00     0.043 H 
ATOM     16  H   LIG d   1      10.202   4.837  -1.440  0.00  0.00     0.043 H 
ENDBRANCH  11  13
ENDBRANCH   9  11
ENDBRANCH   7   9
ENDBRANCH   4   7
ENDBRANCH   1   4
BRANCH   1  17
ATOM     17  C   LIG d   1       5.690   0.954  -2.987  0.00  0.00    -0.007 C 
ATOM     18  H   LIG d   1       5.883   1.209  -1.944  0.00  0.00     0.033 H 
ATOM     19  H   LIG d   1       5.217   1.799  -3.487  0.00  0.00     0.033 H 
BRANCH  17  20
ATOM     20  C   LIG d   1       4.775  -0.243  -3.051  0.00  0.00     0.059 A 
ATOM     21  C   LIG d   1       4.023  -0.609  -4.106  0.00  0.00     0.024 A 
ATOM     22  N   LIG d   1       3.352  -1.743  -3.740  0.00  0.00    -0.351 N 
ATOM     23  H   LIG d   1       3.962  -0.103  -5.059  0.00  0.00     0.083 H 
ATOM     24  C   LIG d   1       3.717  -2.031  -2.472  0.00  0.00     0.094 A 
ATOM     25  H   LIG d   1       2.729  -2.246  -4.288  0.00  0.00     0.166 HD
ATOM     26  H   LIG d   1       3.363  -2.871  -1.891  0.00  0.00     0.103 H 
ATOM     27  N   LIG d   1       4.572  -1.133  -2.069  0.00  0.00    -0.241 NA
ENDBRANCH  17  20
ENDBRANCH   1  17
TORSDOF 7
ENDMDL
MODEL 10
REMARK VINA RESULT:      -4.0     11.777     13.230
REMARK  7 active torsions:
REMARK  status: ('A' for Active; 'I' for Inactive)
REMARK    1  A    between atoms: C_1  and  N_2 
REMARK    2  A    between atoms: N_2  and  C_3 
REMARK    3  A    between atoms: C_3  and  N_4 
REMARK    4  A    between atoms: N_4  and  C_5 
REMARK    5  A    between atoms: C_5  and  C_6 
REMARK    6  A    between atoms: C_6  and  C_7 
REMARK    7  A    between atoms: C_7  and  C_8 
ROOT
ATOM      1  C   LIG d   1       6.450  -1.402  -3.574  0.00  0.00    -0.032 C 
ATOM      2  H   LIG d   1       7.295  -1.197  -2.915  0.00  0.00     0.028 H 
ATOM      3  H   LIG d   1       6.403  -0.638  -4.350  0.00  0.00     0.028 H 
ENDROOT
BRANCH   1   4
ATOM      4  C   LIG d   1       6.628  -2.776  -4.221  0.00  0.00     0.011 C 
ATOM      5  H   LIG d   1       6.059  -3.518  -3.661  0.00  0.00     0.046 H 
ATOM      6  H   LIG d   1       7.684  -3.048  -4.213  0.00  0.00     0.046 H 
BRANCH   4   7
ATOM      7  N   LIG d   1       6.146  -2.731  -5.604  0.00  0.00    -0.327 N 
ATOM      8  H   LIG d   1       6.613  -2.194  -6.262  0.00  0.00     0.148 HD
BRANCH   7   9
ATOM      9  C   LIG d   1       5.053  -3.437  -5.959  0.00  0.00     0.130 C 
ATOM     10  S   LIG d   1       4.954  -5.104  -5.589  0.00  0.00    -0.019 SA
BRANCH   9  11
ATOM     11  N   LIG d   1       4.039  -2.827  -6.604  0.00  0.00    -0.330 N 
ATOM     12  H   LIG d   1       3.141  -2.864  -6.241  0.00  0.00     0.147 HD
BRANCH  11  13
ATOM     13  C   LIG d   1       4.295  -2.109  -7.856  0.00  0.00    -0.001 C 
ATOM     14  H   LIG d   1       4.336  -2.820  -8.681  0.00  0.00     0.043 H 
ATOM     15  H   LIG d   1       3.493  -1.392  -8.033  0.00  0.00     0.043 H 
ATOM     16  H   LIG d   1       5.245  -1.580  -7.783  0.00  0.00     0.043 H 
ENDBRANCH  11  13
ENDBRANCH   9  11
ENDBRANCH   7   9
ENDBRANCH   4   7
ENDBRANCH   1   4
BRANCH   1  17
ATOM     17  C   LIG d   1       5.154  -1.384  -2.761  0.00  0.00    -0.007 C 
ATOM     18  H   LIG d   1       4.893  -2.403  -2.471  0.00  0.00     0.033 H 
ATOM     19  H   LIG d   1       5.294  -0.776  -1.867  0.00  0.00     0.033 H 
BRANCH  17  20
ATOM     20  C   LIG d   1       4.044  -0.799  -3.597  0.00  0.00     0.059 A 
ATOM     21  C   LIG d   1       2.727  -0.874  -3.327  0.00  0.00     0.024 A 
ATOM     22  N   LIG d   1       2.078  -0.214  -4.336  0.00  0.00    -0.351 N 
ATOM     23  H   LIG d   1       2.270  -1.361  -2.478  0.00  0.00     0.083 H 
ATOM     24  C   LIG d   1       3.023   0.240  -5.188  0.00  0.00     0.094 A 
ATOM     25  H   LIG d   1       1.120  -0.097  -4.423  0.00  0.00     0.166 HD
ATOM     26  H   LIG d   1       2.837   0.803  -6.091  0.00  0.00     0.103 H 
ATOM     27  N   LIG d   1       4.196  -0.110  -4.737  0.00  0.00    -0.241 NA
ENDBRANCH  17  20
ENDBRANCH   1  17
TORSDOF 7
ENDMDL
