MODEL 1
REMARK VINA RESULT:      -6.1      0.000      0.000
REMARK  8 active torsions:
REMARK  status: ('A' for Active; 'I' for Inactive)
REMARK    1  A    between atoms: C_1  and  C_2 
REMARK    2  A    between atoms: C_8  and  C_11 
REMARK    3  A    between atoms: C_14  and  O_17 
REMARK    4  A    between atoms: O_17  and  C_18 
REMARK    5  A    between atoms: C_18  and  C_19 
REMARK    6  A    between atoms: C_19  and  C_21 
REMARK    7  A    between atoms: C_19  and  O_27 
REMARK    8  A    between atoms: C_21  and  N_56 
ROOT
ATOM      1  C   LIG d   1       5.345  -0.844  -6.369  0.00  0.00    -0.018 A 
ATOM      2  C   LIG d   1       4.997  -1.999  -7.044  0.00  0.00    -0.053 A 
ATOM      3  C   LIG d   1       5.440  -2.206  -8.337  0.00  0.00    -0.020 A 
ATOM      4  C   LIG d   1       6.245  -1.258  -8.952  0.00  0.00     0.121 A 
ATOM      5  C   LIG d   1       6.597  -0.103  -8.270  0.00  0.00    -0.020 A 
ATOM      6  C   LIG d   1       6.146   0.102  -6.980  0.00  0.00    -0.053 A 
ATOM      7  H   LIG d   1       4.374  -2.739  -6.562  0.00  0.00     0.062 H 
ATOM      8  H   LIG d   1       5.164  -3.106  -8.865  0.00  0.00     0.065 H 
ATOM      9  H   LIG d   1       7.224   0.637  -8.747  0.00  0.00     0.065 H 
ATOM     10  H   LIG d   1       6.421   1.001  -6.449  0.00  0.00     0.062 H 
ENDROOT
BRANCH   4  11
ATOM     11  O   LIG d   1       6.686  -1.461 -10.222  0.00  0.00    -0.489 OA
BRANCH  11  12
ATOM     12  C   LIG d   1       6.320  -0.486 -11.200  0.00  0.00     0.120 C 
ATOM     13  H   LIG d   1       6.008   0.431 -10.700  0.00  0.00     0.072 H 
ATOM     14  H   LIG d   1       7.176  -0.276 -11.841  0.00  0.00     0.072 H 
BRANCH  12  15
ATOM     15  C   LIG d   1       5.167  -1.022 -12.049  0.00  0.00     0.129 C 
ATOM     16  H   LIG d   1       4.880  -2.012 -11.689  0.00  0.00     0.068 H 
BRANCH  15  17
ATOM     17  C   LIG d   1       3.970  -0.075 -11.942  0.00  0.00    -0.002 C 
ATOM     18  H   LIG d   1       4.098   0.751 -12.643  0.00  0.00     0.084 H 
ATOM     19  H   LIG d   1       3.056  -0.616 -12.182  0.00  0.00     0.084 H 
BRANCH  17  20
ATOM     20  N   LIG d   1       3.889   0.429 -10.556  0.00  0.00     0.237 N 
ATOM     21  C   LIG d   1       2.658  -0.071  -9.909  0.00  0.00    -0.032 C 
ATOM     22  C   LIG d   1       2.655   0.365  -8.442  0.00  0.00    -0.012 C 
ATOM     23  H   LIG d   1       1.774   0.329 -10.408  0.00  0.00     0.081 H 
ATOM     24  H   LIG d   1       2.644  -1.158  -9.965  0.00  0.00     0.081 H 
ATOM     25  C   LIG d   1       2.693   1.895  -8.369  0.00  0.00    -0.043 C 
ATOM     26  H   LIG d   1       3.531  -0.044  -7.940  0.00  0.00     0.032 H 
ATOM     27  H   LIG d   1       1.751  -0.000  -7.954  0.00  0.00     0.032 H 
ATOM     28  C   LIG d   1       3.934   2.402  -9.107  0.00  0.00    -0.012 C 
ATOM     29  H   LIG d   1       2.735   2.208  -7.325  0.00  0.00     0.027 H 
ATOM     30  H   LIG d   1       1.798   2.304  -8.836  0.00  0.00     0.027 H 
ATOM     31  C   LIG d   1       3.899   1.908 -10.554  0.00  0.00    -0.032 C 
ATOM     32  H   LIG d   1       4.830   2.024  -8.614  0.00  0.00     0.032 H 
ATOM     33  H   LIG d   1       3.944   3.492  -9.095  0.00  0.00     0.032 H 
ATOM     34  H   LIG d   1       4.790   2.255 -11.079  0.00  0.00     0.081 H 
ATOM     35  H   LIG d   1       3.011   2.298 -11.050  0.00  0.00     0.081 H 
ATOM     36  H   LIG d   1       4.703   0.090 -10.029  0.00  0.00     0.203 HD
ENDBRANCH  17  20
ENDBRANCH  15  17
BRANCH  15  37
ATOM     37  O   LIG d   1       5.582  -1.114 -13.413  0.00  0.00    -0.383 OA
ATOM     38  H   LIG d   1       6.129  -1.887 -13.607  0.00  0.00     0.210 HD
ENDBRANCH  15  37
ENDBRANCH  12  15
ENDBRANCH  11  12
ENDBRANCH   4  11
BRANCH   1  39
ATOM     39  C   LIG d   1       4.854  -0.619  -4.962  0.00  0.00     0.088 C 
ATOM     40  C   LIG d   1       4.269  -1.924  -4.408  0.00  0.00    -0.001 C 
ATOM     41  C   LIG d   1       3.615  -1.618  -3.076  0.00  0.00    -0.071 C 
ATOM     42  H   LIG d   1       3.526  -2.317  -5.102  0.00  0.00     0.034 H 
ATOM     43  H   LIG d   1       5.065  -2.655  -4.268  0.00  0.00     0.034 H 
ATOM     44  C   LIG d   1       2.677  -0.430  -3.012  0.00  0.00    -0.006 C 
ATOM     45  C   LIG d   1       3.852  -2.355  -2.019  0.00  0.00    -0.099 C 
ATOM     46  C   LIG d   1       3.378   0.766  -3.666  0.00  0.00     0.060 C 
ATOM     47  H   LIG d   1       2.447  -0.199  -1.972  0.00  0.00     0.034 H 
ATOM     48  H   LIG d   1       1.756  -0.657  -3.550  0.00  0.00     0.034 H 
ATOM     49  H   LIG d   1       2.676   1.595  -3.757  0.00  0.00     0.060 H 
ATOM     50  O   LIG d   1       3.842   0.389  -4.964  0.00  0.00    -0.368 OA
ATOM     51  H   LIG d   1       3.375  -2.119  -1.079  0.00  0.00     0.053 H 
ATOM     52  H   LIG d   1       4.524  -3.197  -2.087  0.00  0.00     0.053 H 
ATOM     53  H   LIG d   1       5.686  -0.298  -4.334  0.00  0.00     0.065 H 
BRANCH  46  54
ATOM     54  C   LIG d   1       4.567   1.196  -2.805  0.00  0.00    -0.038 C 
ATOM     55  H   LIG d   1       4.594   2.283  -2.738  0.00  0.00     0.025 H 
ATOM     56  H   LIG d   1       4.461   0.774  -1.804  0.00  0.00     0.025 H 
ATOM     57  H   LIG d   1       5.492   0.835  -3.255  0.00  0.00     0.025 H 
ENDBRANCH  46  54
ENDBRANCH   1  39
TORSDOF 8
ENDMDL
MODEL 2
REMARK VINA RESULT:      -6.1      1.844      2.922
REMARK  8 active torsions:
REMARK  status: ('A' for Active; 'I' for Inactive)
REMARK    1  A    between atoms: C_1  and  C_2 
REMARK    2  A    between atoms: C_8  and  C_11 
REMARK    3  A    between atoms: C_14  and  O_17 
REMARK    4  A    between atoms: O_17  and  C_18 
REMARK    5  A    between atoms: C_18  and  C_19 
REMARK    6  A    between atoms: C_19  and  C_21 
REMARK    7  A    between atoms: C_19  and  O_27 
REMARK    8  A    between atoms: C_21  and  N_56 
ROOT
ATOM      1  C   LIG d   1       4.070  -0.791  -6.298  0.00  0.00    -0.018 A 
ATOM      2  C   LIG d   1       3.049   0.060  -6.677  0.00  0.00    -0.053 A 
ATOM      3  C   LIG d   1       2.361  -0.165  -7.855  0.00  0.00    -0.020 A 
ATOM      4  C   LIG d   1       2.690  -1.253  -8.651  0.00  0.00     0.121 A 
ATOM      5  C   LIG d   1       3.711  -2.109  -8.264  0.00  0.00    -0.020 A 
ATOM      6  C   LIG d   1       4.398  -1.876  -7.089  0.00  0.00    -0.053 A 
ATOM      7  H   LIG d   1       2.791   0.905  -6.055  0.00  0.00     0.062 H 
ATOM      8  H   LIG d   1       1.567   0.503  -8.153  0.00  0.00     0.065 H 
ATOM      9  H   LIG d   1       3.968  -2.957  -8.882  0.00  0.00     0.065 H 
ATOM     10  H   LIG d   1       5.193  -2.542  -6.788  0.00  0.00     0.062 H 
ENDROOT
BRANCH   4  11
ATOM     11  O   LIG d   1       2.012  -1.479  -9.807  0.00  0.00    -0.489 OA
BRANCH  11  12
ATOM     12  C   LIG d   1       2.758  -2.014 -10.902  0.00  0.00     0.120 C 
ATOM     13  H   LIG d   1       3.790  -2.177 -10.594  0.00  0.00     0.072 H 
ATOM     14  H   LIG d   1       2.318  -2.962 -11.213  0.00  0.00     0.072 H 
BRANCH  12  15
ATOM     15  C   LIG d   1       2.724  -1.029 -12.072  0.00  0.00     0.129 C 
ATOM     16  H   LIG d   1       1.925  -0.304 -11.913  0.00  0.00     0.068 H 
BRANCH  15  17
ATOM     17  C   LIG d   1       4.065  -0.299 -12.164  0.00  0.00    -0.002 C 
ATOM     18  H   LIG d   1       4.841  -1.003 -12.467  0.00  0.00     0.084 H 
ATOM     19  H   LIG d   1       3.993   0.501 -12.900  0.00  0.00     0.084 H 
BRANCH  17  20
ATOM     20  N   LIG d   1       4.379   0.280 -10.843  0.00  0.00     0.237 N 
ATOM     21  C   LIG d   1       3.941   1.692 -10.794  0.00  0.00    -0.032 C 
ATOM     22  C   LIG d   1       4.167   2.235  -9.381  0.00  0.00    -0.012 C 
ATOM     23  H   LIG d   1       4.506   2.292 -11.508  0.00  0.00     0.081 H 
ATOM     24  H   LIG d   1       2.880   1.742 -11.037  0.00  0.00     0.081 H 
ATOM     25  C   LIG d   1       5.657   2.144  -9.038  0.00  0.00    -0.043 C 
ATOM     26  H   LIG d   1       3.593   1.643  -8.669  0.00  0.00     0.032 H 
ATOM     27  H   LIG d   1       3.845   3.275  -9.334  0.00  0.00     0.032 H 
ATOM     28  C   LIG d   1       6.114   0.688  -9.164  0.00  0.00    -0.012 C 
ATOM     29  H   LIG d   1       5.816   2.489  -8.015  0.00  0.00     0.027 H 
ATOM     30  H   LIG d   1       6.229   2.766  -9.725  0.00  0.00     0.027 H 
ATOM     31  C   LIG d   1       5.832   0.191 -10.582  0.00  0.00    -0.032 C 
ATOM     32  H   LIG d   1       5.570   0.073  -8.447  0.00  0.00     0.032 H 
ATOM     33  H   LIG d   1       7.183   0.624  -8.962  0.00  0.00     0.032 H 
ATOM     34  H   LIG d   1       6.142  -0.850 -10.672  0.00  0.00     0.081 H 
ATOM     35  H   LIG d   1       6.387   0.798 -11.297  0.00  0.00     0.081 H 
ATOM     36  H   LIG d   1       3.878  -0.248 -10.119  0.00  0.00     0.203 HD
ENDBRANCH  17  20
ENDBRANCH  15  17
BRANCH  15  37
ATOM     37  O   LIG d   1       2.485  -1.741 -13.288  0.00  0.00    -0.383 OA
ATOM     38  H   LIG d   1       3.254  -2.222 -13.620  0.00  0.00     0.210 HD
ENDBRANCH  15  37
ENDBRANCH  12  15
ENDBRANCH  11  12
ENDBRANCH   4  11
BRANCH   1  39
ATOM     39  C   LIG d   1       4.821  -0.539  -5.016  0.00  0.00     0.088 C 
ATOM     40  C   LIG d   1       3.990   0.374  -4.105  0.00  0.00    -0.001 C 
ATOM     41  C   LIG d   1       4.849   0.762  -2.919  0.00  0.00    -0.071 C 
ATOM     42  H   LIG d   1       3.694   1.268  -4.654  0.00  0.00     0.034 H 
ATOM     43  H   LIG d   1       3.103  -0.157  -3.760  0.00  0.00     0.034 H 
ATOM     44  C   LIG d   1       6.251   1.261  -3.201  0.00  0.00    -0.006 C 
ATOM     45  C   LIG d   1       4.394   0.670  -1.694  0.00  0.00    -0.099 C 
ATOM     46  C   LIG d   1       6.917   0.283  -4.176  0.00  0.00     0.060 C 
ATOM     47  H   LIG d   1       6.821   1.301  -2.273  0.00  0.00     0.034 H 
ATOM     48  H   LIG d   1       6.206   2.254  -3.649  0.00  0.00     0.034 H 
ATOM     49  H   LIG d   1       7.874   0.690  -4.503  0.00  0.00     0.060 H 
ATOM     50  O   LIG d   1       6.068   0.094  -5.309  0.00  0.00    -0.368 OA
ATOM     51  H   LIG d   1       5.023   0.952  -0.862  0.00  0.00     0.053 H 
ATOM     52  H   LIG d   1       3.391   0.312  -1.515  0.00  0.00     0.053 H 
ATOM     53  H   LIG d   1       5.004  -1.487  -4.510  0.00  0.00     0.065 H 
BRANCH  46  54
ATOM     54  C   LIG d   1       7.144  -1.059  -3.479  0.00  0.00    -0.038 C 
ATOM     55  H   LIG d   1       8.003  -1.561  -3.924  0.00  0.00     0.025 H 
ATOM     56  H   LIG d   1       7.333  -0.890  -2.418  0.00  0.00     0.025 H 
ATOM     57  H   LIG d   1       6.257  -1.684  -3.595  0.00  0.00     0.025 H 
ENDBRANCH  46  54
ENDBRANCH   1  39
TORSDOF 8
ENDMDL
MODEL 3
REMARK VINA RESULT:      -5.9      4.671      6.909
REMARK  8 active torsions:
REMARK  status: ('A' for Active; 'I' for Inactive)
REMARK    1  A    between atoms: C_1  and  C_2 
REMARK    2  A    between atoms: C_8  and  C_11 
REMARK    3  A    between atoms: C_14  and  O_17 
REMARK    4  A    between atoms: O_17  and  C_18 
REMARK    5  A    between atoms: C_18  and  C_19 
REMARK    6  A    between atoms: C_19  and  C_21 
REMARK    7  A    between atoms: C_19  and  O_27 
REMARK    8  A    between atoms: C_21  and  N_56 
ROOT
ATOM      1  C   LIG d   1       8.847   2.723  -4.815  0.00  0.00    -0.018 A 
ATOM      2  C   LIG d   1       8.242   1.905  -3.878  0.00  0.00    -0.053 A 
ATOM      3  C   LIG d   1       7.512   0.805  -4.288  0.00  0.00    -0.020 A 
ATOM      4  C   LIG d   1       7.397   0.516  -5.640  0.00  0.00     0.121 A 
ATOM      5  C   LIG d   1       8.010   1.335  -6.577  0.00  0.00    -0.020 A 
ATOM      6  C   LIG d   1       8.733   2.436  -6.162  0.00  0.00    -0.053 A 
ATOM      7  H   LIG d   1       8.335   2.129  -2.825  0.00  0.00     0.062 H 
ATOM      8  H   LIG d   1       7.036   0.170  -3.556  0.00  0.00     0.065 H 
ATOM      9  H   LIG d   1       7.922   1.111  -7.630  0.00  0.00     0.065 H 
ATOM     10  H   LIG d   1       9.210   3.074  -6.892  0.00  0.00     0.062 H 
ENDROOT
BRANCH   4  11
ATOM     11  O   LIG d   1       6.684  -0.568  -6.045  0.00  0.00    -0.489 OA
BRANCH  11  12
ATOM     12  C   LIG d   1       5.551  -0.324  -6.881  0.00  0.00     0.120 C 
ATOM     13  H   LIG d   1       5.332   0.743  -6.894  0.00  0.00     0.072 H 
ATOM     14  H   LIG d   1       5.768  -0.662  -7.894  0.00  0.00     0.072 H 
BRANCH  12  15
ATOM     15  C   LIG d   1       4.342  -1.088  -6.338  0.00  0.00     0.129 C 
ATOM     16  H   LIG d   1       4.676  -1.820  -5.601  0.00  0.00     0.068 H 
BRANCH  15  17
ATOM     17  C   LIG d   1       3.373  -0.105  -5.677  0.00  0.00    -0.002 C 
ATOM     18  H   LIG d   1       3.700   0.916  -5.875  0.00  0.00     0.084 H 
ATOM     19  H   LIG d   1       2.373  -0.253  -6.084  0.00  0.00     0.084 H 
BRANCH  17  20
ATOM     20  N   LIG d   1       3.351  -0.369  -4.224  0.00  0.00     0.237 N 
ATOM     21  C   LIG d   1       4.081   0.699  -3.507  0.00  0.00    -0.032 C 
ATOM     22  C   LIG d   1       3.944   0.468  -2.000  0.00  0.00    -0.012 C 
ATOM     23  H   LIG d   1       5.137   0.690  -3.780  0.00  0.00     0.081 H 
ATOM     24  H   LIG d   1       3.647   1.663  -3.768  0.00  0.00     0.081 H 
ATOM     25  C   LIG d   1       4.540  -0.896  -1.641  0.00  0.00    -0.043 C 
ATOM     26  H   LIG d   1       2.890   0.489  -1.724  0.00  0.00     0.032 H 
ATOM     27  H   LIG d   1       4.478   1.252  -1.461  0.00  0.00     0.032 H 
ATOM     28  C   LIG d   1       3.825  -1.984  -2.446  0.00  0.00    -0.012 C 
ATOM     29  H   LIG d   1       4.405  -1.083  -0.575  0.00  0.00     0.027 H 
ATOM     30  H   LIG d   1       5.603  -0.905  -1.880  0.00  0.00     0.027 H 
ATOM     31  C   LIG d   1       3.965  -1.683  -3.939  0.00  0.00    -0.032 C 
ATOM     32  H   LIG d   1       2.768  -2.002  -2.175  0.00  0.00     0.032 H 
ATOM     33  H   LIG d   1       4.273  -2.953  -2.226  0.00  0.00     0.032 H 
ATOM     34  H   LIG d   1       3.444  -2.448  -4.515  0.00  0.00     0.081 H 
ATOM     35  H   LIG d   1       5.021  -1.680  -4.211  0.00  0.00     0.081 H 
ATOM     36  H   LIG d   1       2.377  -0.380  -3.901  0.00  0.00     0.203 HD
ENDBRANCH  17  20
ENDBRANCH  15  17
BRANCH  15  37
ATOM     37  O   LIG d   1       3.681  -1.760  -7.411  0.00  0.00    -0.383 OA
ATOM     38  H   LIG d   1       4.206  -2.461  -7.819  0.00  0.00     0.210 HD
ENDBRANCH  15  37
ENDBRANCH  12  15
ENDBRANCH  11  12
ENDBRANCH   4  11
BRANCH   1  39
ATOM     39  C   LIG d   1       9.636   3.925  -4.365  0.00  0.00     0.088 C 
ATOM     40  C   LIG d   1       9.844   3.863  -2.846  0.00  0.00    -0.001 C 
ATOM     41  C   LIG d   1      10.467   5.171  -2.403  0.00  0.00    -0.071 C 
ATOM     42  H   LIG d   1       8.884   3.725  -2.349  0.00  0.00     0.034 H 
ATOM     43  H   LIG d   1      10.510   3.036  -2.599  0.00  0.00     0.034 H 
ATOM     44  C   LIG d   1       9.833   6.453  -2.899  0.00  0.00    -0.006 C 
ATOM     45  C   LIG d   1      11.516   5.191  -1.618  0.00  0.00    -0.099 C 
ATOM     46  C   LIG d   1       9.626   6.328  -4.413  0.00  0.00     0.060 C 
ATOM     47  H   LIG d   1      10.490   7.296  -2.686  0.00  0.00     0.034 H 
ATOM     48  H   LIG d   1       8.871   6.604  -2.407  0.00  0.00     0.034 H 
ATOM     49  H   LIG d   1       9.047   7.178  -4.774  0.00  0.00     0.060 H 
ATOM     50  O   LIG d   1       8.921   5.117  -4.694  0.00  0.00    -0.368 OA
ATOM     51  H   LIG d   1      11.945   6.134  -1.314  0.00  0.00     0.053 H 
ATOM     52  H   LIG d   1      11.953   4.264  -1.276  0.00  0.00     0.053 H 
ATOM     53  H   LIG d   1      10.605   3.931  -4.864  0.00  0.00     0.065 H 
BRANCH  46  54
ATOM     54  C   LIG d   1      10.985   6.301  -5.114  0.00  0.00    -0.038 C 
ATOM     55  H   LIG d   1      10.839   6.330  -6.194  0.00  0.00     0.025 H 
ATOM     56  H   LIG d   1      11.570   7.168  -4.804  0.00  0.00     0.025 H 
ATOM     57  H   LIG d   1      11.517   5.389  -4.843  0.00  0.00     0.025 H 
ENDBRANCH  46  54
ENDBRANCH   1  39
TORSDOF 8
ENDMDL
MODEL 4
REMARK VINA RESULT:      -5.8      6.384      8.624
REMARK  8 active torsions:
REMARK  status: ('A' for Active; 'I' for Inactive)
REMARK    1  A    between atoms: C_1  and  C_2 
REMARK    2  A    between atoms: C_8  and  C_11 
REMARK    3  A    between atoms: C_14  and  O_17 
REMARK    4  A    between atoms: O_17  and  C_18 
REMARK    5  A    between atoms: C_18  and  C_19 
REMARK    6  A    between atoms: C_19  and  C_21 
REMARK    7  A    between atoms: C_19  and  O_27 
REMARK    8  A    between atoms: C_21  and  N_56 
ROOT
ATOM      1  C   LIG d   1      10.098   4.775  -2.669  0.00  0.00    -0.018 A 
ATOM      2  C   LIG d   1      10.666   3.535  -2.438  0.00  0.00    -0.053 A 
ATOM      3  C   LIG d   1      10.542   2.531  -3.379  0.00  0.00    -0.020 A 
ATOM      4  C   LIG d   1       9.857   2.772  -4.562  0.00  0.00     0.121 A 
ATOM      5  C   LIG d   1       9.293   4.017  -4.793  0.00  0.00    -0.020 A 
ATOM      6  C   LIG d   1       9.415   5.016  -3.846  0.00  0.00    -0.053 A 
ATOM      7  H   LIG d   1      11.203   3.350  -1.519  0.00  0.00     0.062 H 
ATOM      8  H   LIG d   1      10.982   1.562  -3.197  0.00  0.00     0.065 H 
ATOM      9  H   LIG d   1       8.759   4.207  -5.713  0.00  0.00     0.065 H 
ATOM     10  H   LIG d   1       8.976   5.986  -4.026  0.00  0.00     0.062 H 
ENDROOT
BRANCH   4  11
ATOM     11  O   LIG d   1       9.738   1.787  -5.491  0.00  0.00    -0.489 OA
BRANCH  11  12
ATOM     12  C   LIG d   1       8.413   1.377  -5.836  0.00  0.00     0.120 C 
ATOM     13  H   LIG d   1       7.768   2.252  -5.906  0.00  0.00     0.072 H 
ATOM     14  H   LIG d   1       8.432   0.862  -6.797  0.00  0.00     0.072 H 
BRANCH  12  15
ATOM     15  C   LIG d   1       7.876   0.431  -4.761  0.00  0.00     0.129 C 
ATOM     16  H   LIG d   1       7.726   0.984  -3.833  0.00  0.00     0.068 H 
BRANCH  15  17
ATOM     17  C   LIG d   1       6.542  -0.161  -5.223  0.00  0.00    -0.002 C 
ATOM     18  H   LIG d   1       6.389   0.068  -6.278  0.00  0.00     0.084 H 
ATOM     19  H   LIG d   1       6.558  -1.242  -5.084  0.00  0.00     0.084 H 
BRANCH  17  20
ATOM     20  N   LIG d   1       5.459   0.420  -4.404  0.00  0.00     0.237 N 
ATOM     21  C   LIG d   1       5.798   0.310  -2.969  0.00  0.00    -0.032 C 
ATOM     22  C   LIG d   1       4.720   1.022  -2.148  0.00  0.00    -0.012 C 
ATOM     23  H   LIG d   1       5.850  -0.736  -2.667  0.00  0.00     0.081 H 
ATOM     24  H   LIG d   1       6.762   0.786  -2.794  0.00  0.00     0.081 H 
ATOM     25  C   LIG d   1       3.364   0.361  -2.411  0.00  0.00    -0.043 C 
ATOM     26  H   LIG d   1       4.676   2.072  -2.439  0.00  0.00     0.032 H 
ATOM     27  H   LIG d   1       4.962   0.949  -1.087  0.00  0.00     0.032 H 
ATOM     28  C   LIG d   1       3.061   0.416  -3.910  0.00  0.00    -0.012 C 
ATOM     29  H   LIG d   1       2.587   0.894  -1.862  0.00  0.00     0.027 H 
ATOM     30  H   LIG d   1       3.395  -0.677  -2.083  0.00  0.00     0.027 H 
ATOM     31  C   LIG d   1       4.186  -0.279  -4.680  0.00  0.00    -0.032 C 
ATOM     32  H   LIG d   1       2.990   1.457  -4.229  0.00  0.00     0.032 H 
ATOM     33  H   LIG d   1       2.117  -0.090  -4.110  0.00  0.00     0.032 H 
ATOM     34  H   LIG d   1       3.980  -0.228  -5.749  0.00  0.00     0.081 H 
ATOM     35  H   LIG d   1       4.246  -1.322  -4.370  0.00  0.00     0.081 H 
ATOM     36  H   LIG d   1       5.353   1.412  -4.645  0.00  0.00     0.203 HD
ENDBRANCH  17  20
ENDBRANCH  15  17
BRANCH  15  37
ATOM     37  O   LIG d   1       8.814  -0.624  -4.541  0.00  0.00    -0.383 OA
ATOM     38  H   LIG d   1       9.122  -1.051  -5.351  0.00  0.00     0.210 HD
ENDBRANCH  15  37
ENDBRANCH  12  15
ENDBRANCH  11  12
ENDBRANCH   4  11
BRANCH   1  39
ATOM     39  C   LIG d   1      10.229   5.865  -1.637  0.00  0.00     0.088 C 
ATOM     40  C   LIG d   1       9.582   7.152  -2.166  0.00  0.00    -0.001 C 
ATOM     41  C   LIG d   1       9.900   8.271  -1.195  0.00  0.00    -0.071 C 
ATOM     42  H   LIG d   1       9.989   7.390  -3.148  0.00  0.00     0.034 H 
ATOM     43  H   LIG d   1       8.503   7.020  -2.235  0.00  0.00     0.034 H 
ATOM     44  C   LIG d   1      11.339   8.426  -0.750  0.00  0.00    -0.006 C 
ATOM     45  C   LIG d   1       8.963   9.074  -0.756  0.00  0.00    -0.099 C 
ATOM     46  C   LIG d   1      11.858   7.048  -0.324  0.00  0.00     0.060 C 
ATOM     47  H   LIG d   1      11.393   9.116   0.092  0.00  0.00     0.034 H 
ATOM     48  H   LIG d   1      11.942   8.807  -1.576  0.00  0.00     0.034 H 
ATOM     49  H   LIG d   1      12.929   7.105  -0.131  0.00  0.00     0.060 H 
ATOM     50  O   LIG d   1      11.612   6.107  -1.371  0.00  0.00    -0.368 OA
ATOM     51  H   LIG d   1       9.211   9.866  -0.064  0.00  0.00     0.053 H 
ATOM     52  H   LIG d   1       7.943   8.946  -1.086  0.00  0.00     0.053 H 
ATOM     53  H   LIG d   1       9.729   5.558  -0.718  0.00  0.00     0.065 H 
BRANCH  46  54
ATOM     54  C   LIG d   1      11.134   6.599   0.946  0.00  0.00    -0.038 C 
ATOM     55  H   LIG d   1      11.423   5.577   1.189  0.00  0.00     0.025 H 
ATOM     56  H   LIG d   1      11.406   7.259   1.771  0.00  0.00     0.025 H 
ATOM     57  H   LIG d   1      10.056   6.645   0.785  0.00  0.00     0.025 H 
ENDBRANCH  46  54
ENDBRANCH   1  39
TORSDOF 8
ENDMDL
MODEL 5
REMARK VINA RESULT:      -5.7      6.824      9.213
REMARK  8 active torsions:
REMARK  status: ('A' for Active; 'I' for Inactive)
REMARK    1  A    between atoms: C_1  and  C_2 
REMARK    2  A    between atoms: C_8  and  C_11 
REMARK    3  A    between atoms: C_14  and  O_17 
REMARK    4  A    between atoms: O_17  and  C_18 
REMARK    5  A    between atoms: C_18  and  C_19 
REMARK    6  A    between atoms: C_19  and  C_21 
REMARK    7  A    between atoms: C_19  and  O_27 
REMARK    8  A    between atoms: C_21  and  N_56 
ROOT
ATOM      1  C   LIG d   1      10.158   5.905  -2.920  0.00  0.00    -0.018 A 
ATOM      2  C   LIG d   1      10.250   4.635  -2.381  0.00  0.00    -0.053 A 
ATOM      3  C   LIG d   1       9.813   3.542  -3.106  0.00  0.00    -0.020 A 
ATOM      4  C   LIG d   1       9.293   3.720  -4.380  0.00  0.00     0.121 A 
ATOM      5  C   LIG d   1       9.208   4.994  -4.920  0.00  0.00    -0.020 A 
ATOM      6  C   LIG d   1       9.640   6.084  -4.189  0.00  0.00    -0.053 A 
ATOM      7  H   LIG d   1      10.659   4.497  -1.391  0.00  0.00     0.062 H 
ATOM      8  H   LIG d   1       9.881   2.551  -2.683  0.00  0.00     0.065 H 
ATOM      9  H   LIG d   1       8.803   5.135  -5.913  0.00  0.00     0.065 H 
ATOM     10  H   LIG d   1       9.573   7.076  -4.610  0.00  0.00     0.062 H 
ENDROOT
BRANCH   4  11
ATOM     11  O   LIG d   1       8.868   2.646  -5.096  0.00  0.00    -0.489 OA
BRANCH  11  12
ATOM     12  C   LIG d   1       8.937   1.370  -4.457  0.00  0.00     0.120 C 
ATOM     13  H   LIG d   1       9.741   0.784  -4.901  0.00  0.00     0.072 H 
ATOM     14  H   LIG d   1       9.132   1.508  -3.393  0.00  0.00     0.072 H 
BRANCH  12  15
ATOM     15  C   LIG d   1       7.608   0.634  -4.640  0.00  0.00     0.129 C 
ATOM     16  H   LIG d   1       7.789  -0.441  -4.664  0.00  0.00     0.068 H 
BRANCH  15  17
ATOM     17  C   LIG d   1       6.674   0.969  -3.475  0.00  0.00    -0.002 C 
ATOM     18  H   LIG d   1       7.225   0.898  -2.537  0.00  0.00     0.084 H 
ATOM     19  H   LIG d   1       6.292   1.982  -3.597  0.00  0.00     0.084 H 
BRANCH  17  20
ATOM     20  N   LIG d   1       5.545   0.017  -3.487  0.00  0.00     0.237 N 
ATOM     21  C   LIG d   1       4.622   0.315  -2.371  0.00  0.00    -0.032 C 
ATOM     22  C   LIG d   1       3.404  -0.606  -2.474  0.00  0.00    -0.012 C 
ATOM     23  H   LIG d   1       5.117   0.156  -1.413  0.00  0.00     0.081 H 
ATOM     24  H   LIG d   1       4.300   1.353  -2.445  0.00  0.00     0.081 H 
ATOM     25  C   LIG d   1       3.864  -2.064  -2.389  0.00  0.00    -0.043 C 
ATOM     26  H   LIG d   1       2.901  -0.438  -3.426  0.00  0.00     0.032 H 
ATOM     27  H   LIG d   1       2.715  -0.393  -1.656  0.00  0.00     0.032 H 
ATOM     28  C   LIG d   1       4.875  -2.338  -3.505  0.00  0.00    -0.012 C 
ATOM     29  H   LIG d   1       3.004  -2.725  -2.506  0.00  0.00     0.027 H 
ATOM     30  H   LIG d   1       4.332  -2.243  -1.421  0.00  0.00     0.027 H 
ATOM     31  C   LIG d   1       6.050  -1.368  -3.372  0.00  0.00    -0.032 C 
ATOM     32  H   LIG d   1       4.395  -2.198  -4.474  0.00  0.00     0.032 H 
ATOM     33  H   LIG d   1       5.238  -3.363  -3.423  0.00  0.00     0.032 H 
ATOM     34  H   LIG d   1       6.766  -1.551  -4.174  0.00  0.00     0.081 H 
ATOM     35  H   LIG d   1       6.538  -1.519  -2.409  0.00  0.00     0.081 H 
ATOM     36  H   LIG d   1       5.036   0.112  -4.374  0.00  0.00     0.203 HD
ENDBRANCH  17  20
ENDBRANCH  15  17
BRANCH  15  37
ATOM     37  O   LIG d   1       7.003   1.043  -5.868  0.00  0.00    -0.383 OA
ATOM     38  H   LIG d   1       6.809   0.314  -6.473  0.00  0.00     0.210 HD
ENDBRANCH  15  37
ENDBRANCH  12  15
ENDBRANCH  11  12
ENDBRANCH   4  11
BRANCH   1  39
ATOM     39  C   LIG d   1      10.629   7.095  -2.125  0.00  0.00     0.088 C 
ATOM     40  C   LIG d   1      10.390   6.841  -0.631  0.00  0.00    -0.001 C 
ATOM     41  C   LIG d   1      10.692   8.122   0.118  0.00  0.00    -0.071 C 
ATOM     42  H   LIG d   1       9.350   6.555  -0.469  0.00  0.00     0.034 H 
ATOM     43  H   LIG d   1      11.049   6.046  -0.282  0.00  0.00     0.034 H 
ATOM     44  C   LIG d   1      10.080   9.404  -0.408  0.00  0.00    -0.006 C 
ATOM     45  C   LIG d   1      11.455   8.121   1.183  0.00  0.00    -0.099 C 
ATOM     46  C   LIG d   1      10.342   9.472  -1.917  0.00  0.00     0.060 C 
ATOM     47  H   LIG d   1      10.539  10.261   0.084  0.00  0.00     0.034 H 
ATOM     48  H   LIG d   1       9.006   9.404  -0.221  0.00  0.00     0.034 H 
ATOM     49  H   LIG d   1       9.795  10.313  -2.345  0.00  0.00     0.060 H 
ATOM     50  O   LIG d   1       9.903   8.257  -2.528  0.00  0.00    -0.368 OA
ATOM     51  H   LIG d   1      11.658   9.046   1.702  0.00  0.00     0.053 H 
ATOM     52  H   LIG d   1      11.882   7.196   1.541  0.00  0.00     0.053 H 
ATOM     53  H   LIG d   1      11.694   7.251  -2.301  0.00  0.00     0.065 H 
BRANCH  46  54
ATOM     54  C   LIG d   1      11.839   9.657  -2.168  0.00  0.00    -0.038 C 
ATOM     55  H   LIG d   1      12.020  10.648  -2.583  0.00  0.00     0.025 H 
ATOM     56  H   LIG d   1      12.381   9.554  -1.227  0.00  0.00     0.025 H 
ATOM     57  H   LIG d   1      12.187   8.898  -2.871  0.00  0.00     0.025 H 
ENDBRANCH  46  54
ENDBRANCH   1  39
TORSDOF 8
ENDMDL
MODEL 6
REMARK VINA RESULT:      -5.7      6.716      8.949
REMARK  8 active torsions:
REMARK  status: ('A' for Active; 'I' for Inactive)
REMARK    1  A    between atoms: C_1  and  C_2 
REMARK    2  A    between atoms: C_8  and  C_11 
REMARK    3  A    between atoms: C_14  and  O_17 
REMARK    4  A    between atoms: O_17  and  C_18 
REMARK    5  A    between atoms: C_18  and  C_19 
REMARK    6  A    between atoms: C_19  and  C_21 
REMARK    7  A    between atoms: C_19  and  O_27 
REMARK    8  A    between atoms: C_21  and  N_56 
ROOT
ATOM      1  C   LIG d   1      10.378   5.592  -2.926  0.00  0.00    -0.018 A 
ATOM      2  C   LIG d   1       9.845   5.686  -4.198  0.00  0.00    -0.053 A 
ATOM      3  C   LIG d   1       9.562   4.541  -4.917  0.00  0.00    -0.020 A 
ATOM      4  C   LIG d   1       9.802   3.295  -4.356  0.00  0.00     0.121 A 
ATOM      5  C   LIG d   1      10.331   3.203  -3.077  0.00  0.00    -0.020 A 
ATOM      6  C   LIG d   1      10.618   4.352  -2.365  0.00  0.00    -0.053 A 
ATOM      7  H   LIG d   1       9.654   6.657  -4.633  0.00  0.00     0.062 H 
ATOM      8  H   LIG d   1       9.150   4.615  -5.912  0.00  0.00     0.065 H 
ATOM      9  H   LIG d   1      10.519   2.234  -2.638  0.00  0.00     0.065 H 
ATOM     10  H   LIG d   1      11.030   4.280  -1.369  0.00  0.00     0.062 H 
ENDROOT
BRANCH   4  11
ATOM     11  O   LIG d   1       9.520   2.166  -5.059  0.00  0.00    -0.489 OA
BRANCH  11  12
ATOM     12  C   LIG d   1       8.141   1.851  -5.255  0.00  0.00     0.120 C 
ATOM     13  H   LIG d   1       7.530   2.713  -4.989  0.00  0.00     0.072 H 
ATOM     14  H   LIG d   1       7.972   1.596  -6.301  0.00  0.00     0.072 H 
BRANCH  12  15
ATOM     15  C   LIG d   1       7.758   0.662  -4.373  0.00  0.00     0.129 C 
ATOM     16  H   LIG d   1       7.508   1.018  -3.372  0.00  0.00     0.068 H 
BRANCH  15  17
ATOM     17  C   LIG d   1       6.549  -0.054  -4.977  0.00  0.00    -0.002 C 
ATOM     18  H   LIG d   1       6.486   0.175  -6.041  0.00  0.00     0.084 H 
ATOM     19  H   LIG d   1       6.659  -1.129  -4.843  0.00  0.00     0.084 H 
BRANCH  17  20
ATOM     20  N   LIG d   1       5.331   0.402  -4.276  0.00  0.00     0.237 N 
ATOM     21  C   LIG d   1       5.523   0.298  -2.814  0.00  0.00    -0.032 C 
ATOM     22  C   LIG d   1       4.298   0.885  -2.109  0.00  0.00    -0.012 C 
ATOM     23  H   LIG d   1       5.647  -0.744  -2.517  0.00  0.00     0.081 H 
ATOM     24  H   LIG d   1       6.410   0.863  -2.531  0.00  0.00     0.081 H 
ATOM     25  C   LIG d   1       3.051   0.099  -2.524  0.00  0.00    -0.043 C 
ATOM     26  H   LIG d   1       4.181   1.930  -2.394  0.00  0.00     0.032 H 
ATOM     27  H   LIG d   1       4.430   0.815  -1.029  0.00  0.00     0.032 H 
ATOM     28  C   LIG d   1       2.907   0.153  -4.047  0.00  0.00    -0.012 C 
ATOM     29  H   LIG d   1       2.170   0.542  -2.058  0.00  0.00     0.027 H 
ATOM     30  H   LIG d   1       3.150  -0.937  -2.204  0.00  0.00     0.027 H 
ATOM     31  C   LIG d   1       4.171  -0.413  -4.695  0.00  0.00    -0.032 C 
ATOM     32  H   LIG d   1       2.767   1.188  -4.362  0.00  0.00     0.032 H 
ATOM     33  H   LIG d   1       2.044  -0.440  -4.352  0.00  0.00     0.032 H 
ATOM     34  H   LIG d   1       4.078  -0.362  -5.780  0.00  0.00     0.081 H 
ATOM     35  H   LIG d   1       4.302  -1.451  -4.390  0.00  0.00     0.081 H 
ATOM     36  H   LIG d   1       5.154   1.383  -4.519  0.00  0.00     0.203 HD
ENDBRANCH  17  20
ENDBRANCH  15  17
BRANCH  15  37
ATOM     37  O   LIG d   1       8.858  -0.246  -4.293  0.00  0.00    -0.383 OA
ATOM     38  H   LIG d   1       8.785  -0.892  -3.578  0.00  0.00     0.210 HD
ENDBRANCH  15  37
ENDBRANCH  12  15
ENDBRANCH  11  12
ENDBRANCH   4  11
BRANCH   1  39
ATOM     39  C   LIG d   1      10.691   6.844  -2.148  0.00  0.00     0.088 C 
ATOM     40  C   LIG d   1      10.471   6.586  -0.651  0.00  0.00    -0.001 C 
ATOM     41  C   LIG d   1      10.606   7.907   0.078  0.00  0.00    -0.071 C 
ATOM     42  H   LIG d   1       9.473   6.178  -0.492  0.00  0.00     0.034 H 
ATOM     43  H   LIG d   1      11.220   5.885  -0.284  0.00  0.00     0.034 H 
ATOM     44  C   LIG d   1       9.845   9.095  -0.475  0.00  0.00    -0.006 C 
ATOM     45  C   LIG d   1      11.353   8.018   1.148  0.00  0.00    -0.099 C 
ATOM     46  C   LIG d   1      10.111   9.170  -1.983  0.00  0.00     0.060 C 
ATOM     47  H   LIG d   1      10.190  10.010   0.006  0.00  0.00     0.034 H 
ATOM     48  H   LIG d   1       8.777   8.965  -0.296  0.00  0.00     0.034 H 
ATOM     49  H   LIG d   1       9.469   9.930  -2.429  0.00  0.00     0.060 H 
ATOM     50  O   LIG d   1       9.831   7.901  -2.576  0.00  0.00    -0.368 OA
ATOM     51  H   LIG d   1      11.436   8.969   1.653  0.00  0.00     0.053 H 
ATOM     52  H   LIG d   1      11.887   7.159   1.526  0.00  0.00     0.053 H 
ATOM     53  H   LIG d   1      11.730   7.127  -2.318  0.00  0.00     0.065 H 
BRANCH  46  54
ATOM     54  C   LIG d   1      11.577   9.534  -2.226  0.00  0.00    -0.038 C 
ATOM     55  H   LIG d   1      11.645  10.232  -3.060  0.00  0.00     0.025 H 
ATOM     56  H   LIG d   1      11.989   9.999  -1.329  0.00  0.00     0.025 H 
ATOM     57  H   LIG d   1      12.142   8.631  -2.459  0.00  0.00     0.025 H 
ENDBRANCH  46  54
ENDBRANCH   1  39
TORSDOF 8
ENDMDL
MODEL 7
REMARK VINA RESULT:      -5.5      4.637      6.392
REMARK  8 active torsions:
REMARK  status: ('A' for Active; 'I' for Inactive)
REMARK    1  A    between atoms: C_1  and  C_2 
REMARK    2  A    between atoms: C_8  and  C_11 
REMARK    3  A    between atoms: C_14  and  O_17 
REMARK    4  A    between atoms: O_17  and  C_18 
REMARK    5  A    between atoms: C_18  and  C_19 
REMARK    6  A    between atoms: C_19  and  C_21 
REMARK    7  A    between atoms: C_19  and  O_27 
REMARK    8  A    between atoms: C_21  and  N_56 
ROOT
ATOM      1  C   LIG d   1       8.942   2.900  -4.708  0.00  0.00    -0.018 A 
ATOM      2  C   LIG d   1       8.365   2.107  -3.733  0.00  0.00    -0.053 A 
ATOM      3  C   LIG d   1       7.646   0.982  -4.091  0.00  0.00    -0.020 A 
ATOM      4  C   LIG d   1       7.514   0.643  -5.430  0.00  0.00     0.121 A 
ATOM      5  C   LIG d   1       8.098   1.436  -6.405  0.00  0.00    -0.020 A 
ATOM      6  C   LIG d   1       8.811   2.563  -6.042  0.00  0.00    -0.053 A 
ATOM      7  H   LIG d   1       8.472   2.370  -2.691  0.00  0.00     0.062 H 
ATOM      8  H   LIG d   1       7.192   0.366  -3.329  0.00  0.00     0.065 H 
ATOM      9  H   LIG d   1       7.996   1.174  -7.449  0.00  0.00     0.065 H 
ATOM     10  H   LIG d   1       9.265   3.181  -6.802  0.00  0.00     0.062 H 
ENDROOT
BRANCH   4  11
ATOM     11  O   LIG d   1       6.811  -0.466  -5.784  0.00  0.00    -0.489 OA
BRANCH  11  12
ATOM     12  C   LIG d   1       5.871  -0.970  -4.834  0.00  0.00     0.120 C 
ATOM     13  H   LIG d   1       6.109  -2.008  -4.602  0.00  0.00     0.072 H 
ATOM     14  H   LIG d   1       5.922  -0.374  -3.922  0.00  0.00     0.072 H 
BRANCH  12  15
ATOM     15  C   LIG d   1       4.460  -0.887  -5.418  0.00  0.00     0.129 C 
ATOM     16  H   LIG d   1       3.997   0.054  -5.118  0.00  0.00     0.068 H 
BRANCH  15  17
ATOM     17  C   LIG d   1       4.535  -0.955  -6.945  0.00  0.00    -0.002 C 
ATOM     18  H   LIG d   1       5.491  -1.387  -7.242  0.00  0.00     0.084 H 
ATOM     19  H   LIG d   1       3.723  -1.577  -7.321  0.00  0.00     0.084 H 
BRANCH  17  20
ATOM     20  N   LIG d   1       4.393   0.412  -7.486  0.00  0.00     0.237 N 
ATOM     21  C   LIG d   1       2.988   0.656  -7.876  0.00  0.00    -0.032 C 
ATOM     22  C   LIG d   1       2.842   2.113  -8.322  0.00  0.00    -0.012 C 
ATOM     23  H   LIG d   1       2.699  -0.003  -8.695  0.00  0.00     0.081 H 
ATOM     24  H   LIG d   1       2.344   0.473  -7.017  0.00  0.00     0.081 H 
ATOM     25  C   LIG d   1       3.764   2.371  -9.517  0.00  0.00    -0.043 C 
ATOM     26  H   LIG d   1       3.120   2.774  -7.500  0.00  0.00     0.032 H 
ATOM     27  H   LIG d   1       1.809   2.305  -8.610  0.00  0.00     0.032 H 
ATOM     28  C   LIG d   1       5.205   2.043  -9.121  0.00  0.00    -0.012 C 
ATOM     29  H   LIG d   1       3.695   3.420  -9.810  0.00  0.00     0.027 H 
ATOM     30  H   LIG d   1       3.463   1.740 -10.352  0.00  0.00     0.027 H 
ATOM     31  C   LIG d   1       5.283   0.589  -8.654  0.00  0.00    -0.032 C 
ATOM     32  H   LIG d   1       5.520   2.703  -8.312  0.00  0.00     0.032 H 
ATOM     33  H   LIG d   1       5.860   2.184  -9.981  0.00  0.00     0.032 H 
ATOM     34  H   LIG d   1       6.306   0.356  -8.356  0.00  0.00     0.081 H 
ATOM     35  H   LIG d   1       4.982  -0.070  -9.467  0.00  0.00     0.081 H 
ATOM     36  H   LIG d   1       4.659   1.088  -6.760  0.00  0.00     0.203 HD
ENDBRANCH  17  20
ENDBRANCH  15  17
BRANCH  15  37
ATOM     37  O   LIG d   1       3.678  -1.979  -4.931  0.00  0.00    -0.383 OA
ATOM     38  H   LIG d   1       3.628  -2.729  -5.538  0.00  0.00     0.210 HD
ENDBRANCH  15  37
ENDBRANCH  12  15
ENDBRANCH  11  12
ENDBRANCH   4  11
BRANCH   1  39
ATOM     39  C   LIG d   1       9.719   4.129  -4.315  0.00  0.00     0.088 C 
ATOM     40  C   LIG d   1       9.909   4.151  -2.792  0.00  0.00    -0.001 C 
ATOM     41  C   LIG d   1      10.519   5.484  -2.414  0.00  0.00    -0.071 C 
ATOM     42  H   LIG d   1       8.943   4.035  -2.301  0.00  0.00     0.034 H 
ATOM     43  H   LIG d   1      10.575   3.342  -2.492  0.00  0.00     0.034 H 
ATOM     44  C   LIG d   1       9.884   6.735  -2.987  0.00  0.00    -0.006 C 
ATOM     45  C   LIG d   1      11.558   5.553  -1.619  0.00  0.00    -0.099 C 
ATOM     46  C   LIG d   1       9.697   6.526  -4.494  0.00  0.00     0.060 C 
ATOM     47  H   LIG d   1      10.535   7.592  -2.812  0.00  0.00     0.034 H 
ATOM     48  H   LIG d   1       8.915   6.906  -2.516  0.00  0.00     0.034 H 
ATOM     49  H   LIG d   1       9.118   7.352  -4.908  0.00  0.00     0.060 H 
ATOM     50  O   LIG d   1       9.002   5.298  -4.717  0.00  0.00    -0.368 OA
ATOM     51  H   LIG d   1      11.978   6.515  -1.361  0.00  0.00     0.053 H 
ATOM     52  H   LIG d   1      11.995   4.650  -1.221  0.00  0.00     0.053 H 
ATOM     53  H   LIG d   1      10.694   4.114  -4.802  0.00  0.00     0.065 H 
BRANCH  46  54
ATOM     54  C   LIG d   1      11.065   6.469  -5.176  0.00  0.00    -0.038 C 
ATOM     55  H   LIG d   1      10.934   6.276  -6.240  0.00  0.00     0.025 H 
ATOM     56  H   LIG d   1      11.578   7.422  -5.041  0.00  0.00     0.025 H 
ATOM     57  H   LIG d   1      11.660   5.671  -4.731  0.00  0.00     0.025 H 
ENDBRANCH  46  54
ENDBRANCH   1  39
TORSDOF 8
ENDMDL
MODEL 8
REMARK VINA RESULT:      -5.5      1.567      2.976
REMARK  8 active torsions:
REMARK  status: ('A' for Active; 'I' for Inactive)
REMARK    1  A    between atoms: C_1  and  C_2 
REMARK    2  A    between atoms: C_8  and  C_11 
REMARK    3  A    between atoms: C_14  and  O_17 
REMARK    4  A    between atoms: O_17  and  C_18 
REMARK    5  A    between atoms: C_18  and  C_19 
REMARK    6  A    between atoms: C_19  and  C_21 
REMARK    7  A    between atoms: C_19  and  O_27 
REMARK    8  A    between atoms: C_21  and  N_56 
ROOT
ATOM      1  C   LIG d   1       3.492  -0.271  -6.709  0.00  0.00    -0.018 A 
ATOM      2  C   LIG d   1       3.610  -1.432  -7.451  0.00  0.00    -0.053 A 
ATOM      3  C   LIG d   1       3.284  -1.432  -8.794  0.00  0.00    -0.020 A 
ATOM      4  C   LIG d   1       2.848  -0.262  -9.400  0.00  0.00     0.121 A 
ATOM      5  C   LIG d   1       2.736   0.902  -8.655  0.00  0.00    -0.020 A 
ATOM      6  C   LIG d   1       3.058   0.895  -7.311  0.00  0.00    -0.053 A 
ATOM      7  H   LIG d   1       3.954  -2.341  -6.979  0.00  0.00     0.062 H 
ATOM      8  H   LIG d   1       3.373  -2.340  -9.371  0.00  0.00     0.065 H 
ATOM      9  H   LIG d   1       2.396   1.814  -9.125  0.00  0.00     0.065 H 
ATOM     10  H   LIG d   1       2.970   1.802  -6.731  0.00  0.00     0.062 H 
ENDROOT
BRANCH   4  11
ATOM     11  O   LIG d   1       2.531  -0.259 -10.722  0.00  0.00    -0.489 OA
BRANCH  11  12
ATOM     12  C   LIG d   1       3.384  -1.001 -11.596  0.00  0.00     0.120 C 
ATOM     13  H   LIG d   1       3.782  -1.867 -11.067  0.00  0.00     0.072 H 
ATOM     14  H   LIG d   1       2.813  -1.335 -12.462  0.00  0.00     0.072 H 
BRANCH  12  15
ATOM     15  C   LIG d   1       4.538  -0.111 -12.060  0.00  0.00     0.129 C 
ATOM     16  H   LIG d   1       4.472   0.858 -11.563  0.00  0.00     0.068 H 
BRANCH  15  17
ATOM     17  C   LIG d   1       5.870  -0.776 -11.706  0.00  0.00    -0.002 C 
ATOM     18  H   LIG d   1       5.850  -1.819 -12.025  0.00  0.00     0.084 H 
ATOM     19  H   LIG d   1       6.681  -0.256 -12.213  0.00  0.00     0.084 H 
BRANCH  17  20
ATOM     20  N   LIG d   1       6.070  -0.685 -10.245  0.00  0.00     0.237 N 
ATOM     21  C   LIG d   1       6.501   0.681  -9.880  0.00  0.00    -0.032 C 
ATOM     22  C   LIG d   1       6.587   0.784  -8.355  0.00  0.00    -0.012 C 
ATOM     23  H   LIG d   1       7.477   0.903 -10.313  0.00  0.00     0.081 H 
ATOM     24  H   LIG d   1       5.769   1.396 -10.252  0.00  0.00     0.081 H 
ATOM     25  C   LIG d   1       7.604  -0.236  -7.836  0.00  0.00    -0.043 C 
ATOM     26  H   LIG d   1       5.609   0.576  -7.922  0.00  0.00     0.032 H 
ATOM     27  H   LIG d   1       6.903   1.790  -8.075  0.00  0.00     0.032 H 
ATOM     28  C   LIG d   1       7.185  -1.637  -8.285  0.00  0.00    -0.012 C 
ATOM     29  H   LIG d   1       7.636  -0.196  -6.746  0.00  0.00     0.027 H 
ATOM     30  H   LIG d   1       8.590  -0.004  -8.238  0.00  0.00     0.027 H 
ATOM     31  C   LIG d   1       7.082  -1.671  -9.810  0.00  0.00    -0.032 C 
ATOM     32  H   LIG d   1       6.216  -1.884  -7.849  0.00  0.00     0.032 H 
ATOM     33  H   LIG d   1       7.928  -2.363  -7.954  0.00  0.00     0.032 H 
ATOM     34  H   LIG d   1       6.769  -2.664 -10.133  0.00  0.00     0.081 H 
ATOM     35  H   LIG d   1       8.054  -1.438 -10.245  0.00  0.00     0.081 H 
ATOM     36  H   LIG d   1       5.182  -0.890  -9.773  0.00  0.00     0.203 HD
ENDBRANCH  17  20
ENDBRANCH  15  17
BRANCH  15  37
ATOM     37  O   LIG d   1       4.459   0.074 -13.474  0.00  0.00    -0.383 OA
ATOM     38  H   LIG d   1       4.237  -0.729 -13.964  0.00  0.00     0.210 HD
ENDBRANCH  15  37
ENDBRANCH  12  15
ENDBRANCH  11  12
ENDBRANCH   4  11
BRANCH   1  39
ATOM     39  C   LIG d   1       3.842  -0.276  -5.244  0.00  0.00     0.088 C 
ATOM     40  C   LIG d   1       4.751  -1.473  -4.938  0.00  0.00    -0.001 C 
ATOM     41  C   LIG d   1       4.925  -1.559  -3.436  0.00  0.00    -0.071 C 
ATOM     42  H   LIG d   1       4.290  -2.388  -5.309  0.00  0.00     0.034 H 
ATOM     43  H   LIG d   1       5.722  -1.330  -5.414  0.00  0.00     0.034 H 
ATOM     44  C   LIG d   1       3.679  -1.481  -2.579  0.00  0.00    -0.006 C 
ATOM     45  C   LIG d   1       6.112  -1.697  -2.898  0.00  0.00    -0.099 C 
ATOM     46  C   LIG d   1       2.848  -0.283  -3.056  0.00  0.00     0.060 C 
ATOM     47  H   LIG d   1       3.957  -1.343  -1.534  0.00  0.00     0.034 H 
ATOM     48  H   LIG d   1       3.098  -2.398  -2.687  0.00  0.00     0.034 H 
ATOM     49  H   LIG d   1       1.882  -0.285  -2.550  0.00  0.00     0.060 H 
ATOM     50  O   LIG d   1       2.648  -0.380  -4.467  0.00  0.00    -0.368 OA
ATOM     51  H   LIG d   1       6.214  -1.757  -1.824  0.00  0.00     0.053 H 
ATOM     52  H   LIG d   1       6.988  -1.751  -3.527  0.00  0.00     0.053 H 
ATOM     53  H   LIG d   1       4.362   0.649  -4.991  0.00  0.00     0.065 H 
BRANCH  46  54
ATOM     54  C   LIG d   1       3.591   1.014  -2.734  0.00  0.00    -0.038 C 
ATOM     55  H   LIG d   1       2.899   1.854  -2.790  0.00  0.00     0.025 H 
ATOM     56  H   LIG d   1       4.007   0.954  -1.727  0.00  0.00     0.025 H 
ATOM     57  H   LIG d   1       4.399   1.159  -3.452  0.00  0.00     0.025 H 
ENDBRANCH  46  54
ENDBRANCH   1  39
TORSDOF 8
ENDMDL
MODEL 9
REMARK VINA RESULT:      -5.4      6.357      8.545
REMARK  8 active torsions:
REMARK  status: ('A' for Active; 'I' for Inactive)
REMARK    1  A    between atoms: C_1  and  C_2 
REMARK    2  A    between atoms: C_8  and  C_11 
REMARK    3  A    between atoms: C_14  and  O_17 
REMARK    4  A    between atoms: O_17  and  C_18 
REMARK    5  A    between atoms: C_18  and  C_19 
REMARK    6  A    between atoms: C_19  and  C_21 
REMARK    7  A    between atoms: C_19  and  O_27 
REMARK    8  A    between atoms: C_21  and  N_56 
ROOT
ATOM      1  C   LIG d   1      10.134   4.788  -3.144  0.00  0.00    -0.018 A 
ATOM      2  C   LIG d   1       9.555   5.132  -4.351  0.00  0.00    -0.053 A 
ATOM      3  C   LIG d   1       8.931   4.167  -5.119  0.00  0.00    -0.020 A 
ATOM      4  C   LIG d   1       8.876   2.855  -4.672  0.00  0.00     0.121 A 
ATOM      5  C   LIG d   1       9.452   2.515  -3.457  0.00  0.00    -0.020 A 
ATOM      6  C   LIG d   1      10.080   3.482  -2.696  0.00  0.00    -0.053 A 
ATOM      7  H   LIG d   1       9.595   6.155  -4.697  0.00  0.00     0.062 H 
ATOM      8  H   LIG d   1       8.483   4.436  -6.065  0.00  0.00     0.065 H 
ATOM      9  H   LIG d   1       9.410   1.493  -3.106  0.00  0.00     0.065 H 
ATOM     10  H   LIG d   1      10.529   3.216  -1.750  0.00  0.00     0.062 H 
ENDROOT
BRANCH   4  11
ATOM     11  O   LIG d   1       8.258   1.906  -5.423  0.00  0.00    -0.489 OA
BRANCH  11  12
ATOM     12  C   LIG d   1       8.799   0.584  -5.372  0.00  0.00     0.120 C 
ATOM     13  H   LIG d   1       8.898   0.192  -6.384  0.00  0.00     0.072 H 
ATOM     14  H   LIG d   1       9.780   0.612  -4.896  0.00  0.00     0.072 H 
BRANCH  12  15
ATOM     15  C   LIG d   1       7.866  -0.318  -4.563  0.00  0.00     0.129 C 
ATOM     16  H   LIG d   1       7.723   0.105  -3.568  0.00  0.00     0.068 H 
BRANCH  15  17
ATOM     17  C   LIG d   1       6.515  -0.422  -5.273  0.00  0.00    -0.002 C 
ATOM     18  H   LIG d   1       6.599  -0.006  -6.277  0.00  0.00     0.084 H 
ATOM     19  H   LIG d   1       6.218  -1.468  -5.337  0.00  0.00     0.084 H 
BRANCH  17  20
ATOM     20  N   LIG d   1       5.510   0.323  -4.487  0.00  0.00     0.237 N 
ATOM     21  C   LIG d   1       5.892   0.330  -3.058  0.00  0.00    -0.032 C 
ATOM     22  C   LIG d   1       4.904   1.205  -2.284  0.00  0.00    -0.012 C 
ATOM     23  H   LIG d   1       5.875  -0.682  -2.653  0.00  0.00     0.081 H 
ATOM     24  H   LIG d   1       6.896   0.743  -2.962  0.00  0.00     0.081 H 
ATOM     25  C   LIG d   1       3.492   0.632  -2.439  0.00  0.00    -0.043 C 
ATOM     26  H   LIG d   1       4.929   2.220  -2.680  0.00  0.00     0.032 H 
ATOM     27  H   LIG d   1       5.178   1.219  -1.229  0.00  0.00     0.032 H 
ATOM     28  C   LIG d   1       3.139   0.561  -3.926  0.00  0.00    -0.012 C 
ATOM     29  H   LIG d   1       2.779   1.277  -1.925  0.00  0.00     0.027 H 
ATOM     30  H   LIG d   1       3.456  -0.368  -2.007  0.00  0.00     0.027 H 
ATOM     31  C   LIG d   1       4.177  -0.296  -4.653  0.00  0.00    -0.032 C 
ATOM     32  H   LIG d   1       3.136   1.566  -4.348  0.00  0.00     0.032 H 
ATOM     33  H   LIG d   1       2.152   0.114  -4.045  0.00  0.00     0.032 H 
ATOM     34  H   LIG d   1       3.937  -0.336  -5.715  0.00  0.00     0.081 H 
ATOM     35  H   LIG d   1       4.169  -1.304  -4.240  0.00  0.00     0.081 H 
ATOM     36  H   LIG d   1       5.472   1.291  -4.826  0.00  0.00     0.203 HD
ENDBRANCH  17  20
ENDBRANCH  15  17
BRANCH  15  37
ATOM     37  O   LIG d   1       8.444  -1.620  -4.447  0.00  0.00    -0.383 OA
ATOM     38  H   LIG d   1       9.409  -1.627  -4.489  0.00  0.00     0.210 HD
ENDBRANCH  15  37
ENDBRANCH  12  15
ENDBRANCH  11  12
ENDBRANCH   4  11
BRANCH   1  39
ATOM     39  C   LIG d   1      10.819   5.841  -2.312  0.00  0.00     0.088 C 
ATOM     40  C   LIG d   1      12.028   5.225  -1.596  0.00  0.00    -0.001 C 
ATOM     41  C   LIG d   1      12.574   6.252  -0.626  0.00  0.00    -0.071 C 
ATOM     42  H   LIG d   1      11.716   4.333  -1.052  0.00  0.00     0.034 H 
ATOM     43  H   LIG d   1      12.794   4.963  -2.326  0.00  0.00     0.034 H 
ATOM     44  C   LIG d   1      11.588   6.947   0.289  0.00  0.00    -0.006 C 
ATOM     45  C   LIG d   1      13.854   6.528  -0.581  0.00  0.00    -0.099 C 
ATOM     46  C   LIG d   1      10.413   7.439  -0.563  0.00  0.00     0.060 C 
ATOM     47  H   LIG d   1      12.071   7.795   0.776  0.00  0.00     0.034 H 
ATOM     48  H   LIG d   1      11.228   6.246   1.044  0.00  0.00     0.034 H 
ATOM     49  H   LIG d   1       9.625   7.820   0.087  0.00  0.00     0.060 H 
ATOM     50  O   LIG d   1       9.905   6.352  -1.340  0.00  0.00    -0.368 OA
ATOM     51  H   LIG d   1      14.223   7.264   0.118  0.00  0.00     0.053 H 
ATOM     52  H   LIG d   1      14.540   6.021  -1.243  0.00  0.00     0.053 H 
ATOM     53  H   LIG d   1      11.155   6.653  -2.958  0.00  0.00     0.065 H 
BRANCH  46  54
ATOM     54  C   LIG d   1      10.888   8.554  -1.495  0.00  0.00    -0.038 C 
ATOM     55  H   LIG d   1      10.598   8.322  -2.520  0.00  0.00     0.025 H 
ATOM     56  H   LIG d   1      10.432   9.498  -1.194  0.00  0.00     0.025 H 
ATOM     57  H   LIG d   1      11.974   8.640  -1.435  0.00  0.00     0.025 H 
ENDBRANCH  46  54
ENDBRANCH   1  39
TORSDOF 8
ENDMDL
MODEL 10
REMARK VINA RESULT:      -5.4      3.773      4.604
REMARK  8 active torsions:
REMARK  status: ('A' for Active; 'I' for Inactive)
REMARK    1  A    between atoms: C_1  and  C_2 
REMARK    2  A    between atoms: C_8  and  C_11 
REMARK    3  A    between atoms: C_14  and  O_17 
REMARK    4  A    between atoms: O_17  and  C_18 
REMARK    5  A    between atoms: C_18  and  C_19 
REMARK    6  A    between atoms: C_19  and  C_21 
REMARK    7  A    between atoms: C_19  and  O_27 
REMARK    8  A    between atoms: C_21  and  N_56 
ROOT
ATOM      1  C   LIG d   1       3.613  -0.186  -6.599  0.00  0.00    -0.018 A 
ATOM      2  C   LIG d   1       3.881  -1.314  -7.353  0.00  0.00    -0.053 A 
ATOM      3  C   LIG d   1       3.548  -1.345  -8.694  0.00  0.00    -0.020 A 
ATOM      4  C   LIG d   1       2.954  -0.239  -9.285  0.00  0.00     0.121 A 
ATOM      5  C   LIG d   1       2.692   0.892  -8.528  0.00  0.00    -0.020 A 
ATOM      6  C   LIG d   1       3.022   0.916  -7.186  0.00  0.00    -0.053 A 
ATOM      7  H   LIG d   1       4.347  -2.173  -6.892  0.00  0.00     0.062 H 
ATOM      8  H   LIG d   1       3.753  -2.228  -9.281  0.00  0.00     0.065 H 
ATOM      9  H   LIG d   1       2.230   1.755  -8.986  0.00  0.00     0.065 H 
ATOM     10  H   LIG d   1       2.817   1.798  -6.596  0.00  0.00     0.062 H 
ENDROOT
BRANCH   4  11
ATOM     11  O   LIG d   1       2.630  -0.266 -10.605  0.00  0.00    -0.489 OA
BRANCH  11  12
ATOM     12  C   LIG d   1       2.722  -1.527 -11.271  0.00  0.00     0.120 C 
ATOM     13  H   LIG d   1       3.337  -1.422 -12.164  0.00  0.00     0.072 H 
ATOM     14  H   LIG d   1       3.176  -2.258 -10.602  0.00  0.00     0.072 H 
BRANCH  12  15
ATOM     15  C   LIG d   1       1.322  -1.998 -11.667  0.00  0.00     0.129 C 
ATOM     16  H   LIG d   1       1.268  -2.106 -12.751  0.00  0.00     0.068 H 
BRANCH  15  17
ATOM     17  C   LIG d   1       1.031  -3.347 -11.005  0.00  0.00    -0.002 C 
ATOM     18  H   LIG d   1       1.655  -4.117 -11.461  0.00  0.00     0.084 H 
ATOM     19  H   LIG d   1       1.251  -3.284  -9.941  0.00  0.00     0.084 H 
BRANCH  17  20
ATOM     20  N   LIG d   1      -0.400  -3.664 -11.190  0.00  0.00     0.237 N 
ATOM     21  C   LIG d   1      -0.781  -4.798 -10.320  0.00  0.00    -0.032 C 
ATOM     22  C   LIG d   1      -2.289  -5.031 -10.440  0.00  0.00    -0.012 C 
ATOM     23  H   LIG d   1      -0.250  -5.703 -10.617  0.00  0.00     0.081 H 
ATOM     24  H   LIG d   1      -0.532  -4.553  -9.288  0.00  0.00     0.081 H 
ATOM     25  C   LIG d   1      -2.636  -5.356 -11.895  0.00  0.00    -0.043 C 
ATOM     26  H   LIG d   1      -2.821  -4.131 -10.131  0.00  0.00     0.032 H 
ATOM     27  H   LIG d   1      -2.581  -5.864  -9.800  0.00  0.00     0.032 H 
ATOM     28  C   LIG d   1      -2.169  -4.207 -12.792  0.00  0.00    -0.012 C 
ATOM     29  H   LIG d   1      -3.716  -5.479 -11.993  0.00  0.00     0.027 H 
ATOM     30  H   LIG d   1      -2.136  -6.277 -12.192  0.00  0.00     0.027 H 
ATOM     31  C   LIG d   1      -0.666  -3.999 -12.605  0.00  0.00    -0.032 C 
ATOM     32  H   LIG d   1      -2.701  -3.294 -12.520  0.00  0.00     0.032 H 
ATOM     33  H   LIG d   1      -2.376  -4.452 -13.834  0.00  0.00     0.032 H 
ATOM     34  H   LIG d   1      -0.332  -3.171 -13.232  0.00  0.00     0.081 H 
ATOM     35  H   LIG d   1      -0.135  -4.907 -12.890  0.00  0.00     0.081 H 
ATOM     36  H   LIG d   1      -0.960  -2.844 -10.931  0.00  0.00     0.203 HD
ENDBRANCH  17  20
ENDBRANCH  15  17
BRANCH  15  37
ATOM     37  O   LIG d   1       0.356  -1.038 -11.235  0.00  0.00    -0.383 OA
ATOM     38  H   LIG d   1      -0.491  -1.097 -11.696  0.00  0.00     0.210 HD
ENDBRANCH  15  37
ENDBRANCH  12  15
ENDBRANCH  11  12
ENDBRANCH   4  11
BRANCH   1  39
ATOM     39  C   LIG d   1       3.972  -0.158  -5.136  0.00  0.00     0.088 C 
ATOM     40  C   LIG d   1       3.302  -1.339  -4.420  0.00  0.00    -0.001 C 
ATOM     41  C   LIG d   1       3.523  -1.172  -2.931  0.00  0.00    -0.071 C 
ATOM     42  H   LIG d   1       2.234  -1.341  -4.637  0.00  0.00     0.034 H 
ATOM     43  H   LIG d   1       3.749  -2.274  -4.756  0.00  0.00     0.034 H 
ATOM     44  C   LIG d   1       3.223   0.184  -2.324  0.00  0.00    -0.006 C 
ATOM     45  C   LIG d   1       3.957  -2.164  -2.194  0.00  0.00    -0.099 C 
ATOM     46  C   LIG d   1       3.898   1.253  -3.191  0.00  0.00     0.060 C 
ATOM     47  H   LIG d   1       3.618   0.229  -1.309  0.00  0.00     0.034 H 
ATOM     48  H   LIG d   1       2.145   0.350  -2.307  0.00  0.00     0.034 H 
ATOM     49  H   LIG d   1       3.586   2.243  -2.858  0.00  0.00     0.060 H 
ATOM     50  O   LIG d   1       3.516   1.065  -4.555  0.00  0.00    -0.368 OA
ATOM     51  H   LIG d   1       4.107  -2.024  -1.134  0.00  0.00     0.053 H 
ATOM     52  H   LIG d   1       4.164  -3.123  -2.647  0.00  0.00     0.053 H 
ATOM     53  H   LIG d   1       5.054  -0.232  -5.025  0.00  0.00     0.065 H 
BRANCH  46  54
ATOM     54  C   LIG d   1       5.418   1.128  -3.066  0.00  0.00    -0.038 C 
ATOM     55  H   LIG d   1       5.795   0.466  -3.845  0.00  0.00     0.025 H 
ATOM     56  H   LIG d   1       5.873   2.113  -3.176  0.00  0.00     0.025 H 
ATOM     57  H   LIG d   1       5.669   0.719  -2.086  0.00  0.00     0.025 H 
ENDBRANCH  46  54
ENDBRANCH   1  39
TORSDOF 8
ENDMDL
