MODEL 1
REMARK VINA RESULT:      -6.7      0.000      0.000
REMARK  5 active torsions:
REMARK  status: ('A' for Active; 'I' for Inactive)
REMARK    1  A    between atoms: C_4  and  C_7 
REMARK    2  A    between atoms: C_10  and  C_13 
REMARK    3  A    between atoms: C_13  and  C_15 
REMARK    4  A    between atoms: C_15  and  N_16 
REMARK    5  A    between atoms: C_24  and  N_25 
ROOT
ATOM      1  C   LIG d   1      10.109   4.406  -2.992  0.00  0.00    -0.018 A 
ATOM      2  C   LIG d   1       9.420   4.842  -4.125  0.00  0.00    -0.053 A 
ATOM      3  C   LIG d   1       8.793   3.935  -4.939  0.00  0.00    -0.051 A 
ATOM      4  C   LIG d   1       8.842   2.570  -4.631  0.00  0.00     0.024 A 
ATOM      5  C   LIG d   1       9.534   2.135  -3.494  0.00  0.00    -0.051 A 
ATOM      6  C   LIG d   1      10.164   3.046  -2.687  0.00  0.00    -0.053 A 
ATOM      7  H   LIG d   1       9.382   5.896  -4.361  0.00  0.00     0.062 H 
ATOM      8  H   LIG d   1       8.259   4.272  -5.815  0.00  0.00     0.062 H 
ATOM      9  H   LIG d   1       9.573   1.082  -3.255  0.00  0.00     0.062 H 
ATOM     10  H   LIG d   1      10.702   2.710  -1.811  0.00  0.00     0.062 H 
ENDROOT
BRANCH   4  11
ATOM     11  C   LIG d   1       8.169   1.595  -5.502  0.00  0.00     0.228 C 
ATOM     12  O   LIG d   1       7.854   1.906  -6.630  0.00  0.00    -0.285 OA
BRANCH  11  13
ATOM     13  C   LIG d   1       7.872   0.208  -4.991  0.00  0.00     0.215 C 
ATOM     14  H   LIG d   1       8.471  -0.518  -5.540  0.00  0.00     0.112 H 
ATOM     15  H   LIG d   1       8.116   0.152  -3.930  0.00  0.00     0.112 H 
BRANCH  13  16
ATOM     16  N   LIG d   1       6.450  -0.087  -5.181  0.00  0.00    -0.164 N 
ATOM     17  C   LIG d   1       6.062  -0.631  -6.313  0.00  0.00     0.311 A 
ATOM     18  S   LIG d   1       4.300  -0.797  -6.072  0.00  0.00     0.003 SA
ATOM     19  C   LIG d   1       4.230  -0.099  -4.440  0.00  0.00     0.091 A 
ATOM     20  C   LIG d   1       5.585   0.213  -4.188  0.00  0.00     0.224 A 
ATOM     21  C   LIG d   1       3.231   0.145  -3.531  0.00  0.00    -0.041 A 
ATOM     22  C   LIG d   1       5.867   0.800  -2.932  0.00  0.00     0.011 A 
ATOM     23  C   LIG d   1       4.864   1.040  -2.029  0.00  0.00    -0.056 A 
ATOM     24  H   LIG d   1       6.885   1.061  -2.682  0.00  0.00     0.068 H 
ATOM     25  C   LIG d   1       3.543   0.719  -2.312  0.00  0.00    -0.060 A 
ATOM     26  H   LIG d   1       5.106   1.489  -1.078  0.00  0.00     0.062 H 
ATOM     27  H   LIG d   1       2.767   0.916  -1.587  0.00  0.00     0.062 H 
ATOM     28  H   LIG d   1       2.209  -0.111  -3.765  0.00  0.00     0.063 H 
BRANCH  17  29
ATOM     29  N   LIG d   1       6.825  -0.985  -7.407  0.00  0.00    -0.299 N 
ATOM     30  H   LIG d   1       6.413  -1.439  -8.159  0.00  0.00     0.148 HD
ATOM     31  H   LIG d   1       7.773  -0.780  -7.424  0.00  0.00     0.148 HD
ENDBRANCH  17  29
ENDBRANCH  13  16
ENDBRANCH  11  13
ENDBRANCH   4  11
BRANCH   1  32
ATOM     32  C   LIG d   1      10.787   5.390  -2.115  0.00  0.00    -0.018 A 
ATOM     33  C   LIG d   1      10.120   6.545  -1.710  0.00  0.00    -0.054 A 
ATOM     34  C   LIG d   1      10.756   7.457  -0.894  0.00  0.00    -0.061 A 
ATOM     35  H   LIG d   1       9.105   6.725  -2.035  0.00  0.00     0.062 H 
ATOM     36  C   LIG d   1      12.055   7.228  -0.476  0.00  0.00    -0.062 A 
ATOM     37  H   LIG d   1      10.239   8.352  -0.579  0.00  0.00     0.062 H 
ATOM     38  C   LIG d   1      12.723   6.084  -0.874  0.00  0.00    -0.061 A 
ATOM     39  H   LIG d   1      12.550   7.946   0.159  0.00  0.00     0.062 H 
ATOM     40  C   LIG d   1      12.096   5.165  -1.691  0.00  0.00    -0.054 A 
ATOM     41  H   LIG d   1      13.737   5.910  -0.546  0.00  0.00     0.062 H 
ATOM     42  H   LIG d   1      12.619   4.272  -2.001  0.00  0.00     0.062 H 
ENDBRANCH   1  32
TORSDOF 5
ENDMDL
MODEL 2
REMARK VINA RESULT:      -6.6      5.935      8.069
REMARK  5 active torsions:
REMARK  status: ('A' for Active; 'I' for Inactive)
REMARK    1  A    between atoms: C_4  and  C_7 
REMARK    2  A    between atoms: C_10  and  C_13 
REMARK    3  A    between atoms: C_13  and  C_15 
REMARK    4  A    between atoms: C_15  and  N_16 
REMARK    5  A    between atoms: C_24  and  N_25 
ROOT
ATOM      1  C   LIG d   1       3.651  -0.409  -5.727  0.00  0.00    -0.018 A 
ATOM      2  C   LIG d   1       4.128  -1.360  -6.631  0.00  0.00    -0.053 A 
ATOM      3  C   LIG d   1       3.884  -1.215  -7.972  0.00  0.00    -0.051 A 
ATOM      4  C   LIG d   1       3.158  -0.111  -8.435  0.00  0.00     0.024 A 
ATOM      5  C   LIG d   1       2.681   0.841  -7.527  0.00  0.00    -0.051 A 
ATOM      6  C   LIG d   1       2.923   0.689  -6.186  0.00  0.00    -0.053 A 
ATOM      7  H   LIG d   1       4.689  -2.211  -6.273  0.00  0.00     0.062 H 
ATOM      8  H   LIG d   1       4.254  -1.951  -8.671  0.00  0.00     0.062 H 
ATOM      9  H   LIG d   1       2.121   1.694  -7.882  0.00  0.00     0.062 H 
ATOM     10  H   LIG d   1       2.551   1.422  -5.484  0.00  0.00     0.062 H 
ENDROOT
BRANCH   4  11
ATOM     11  C   LIG d   1       2.897   0.046  -9.873  0.00  0.00     0.228 C 
ATOM     12  O   LIG d   1       1.988  -0.564 -10.395  0.00  0.00    -0.285 OA
BRANCH  11  13
ATOM     13  C   LIG d   1       3.758   0.967 -10.699  0.00  0.00     0.215 C 
ATOM     14  H   LIG d   1       3.267   1.167 -11.651  0.00  0.00     0.112 H 
ATOM     15  H   LIG d   1       3.906   1.904 -10.162  0.00  0.00     0.112 H 
BRANCH  13  16
ATOM     16  N   LIG d   1       5.056   0.333 -10.943  0.00  0.00    -0.164 N 
ATOM     17  C   LIG d   1       5.161  -0.538 -11.920  0.00  0.00     0.311 A 
ATOM     18  S   LIG d   1       6.880  -1.014 -11.824  0.00  0.00     0.003 SA
ATOM     19  C   LIG d   1       7.320   0.014 -10.443  0.00  0.00     0.091 A 
ATOM     20  C   LIG d   1       6.099   0.663 -10.151  0.00  0.00     0.224 A 
ATOM     21  C   LIG d   1       8.470   0.241  -9.730  0.00  0.00    -0.041 A 
ATOM     22  C   LIG d   1       6.120   1.575  -9.069  0.00  0.00     0.011 A 
ATOM     23  C   LIG d   1       7.274   1.797  -8.363  0.00  0.00    -0.056 A 
ATOM     24  H   LIG d   1       5.218   2.102  -8.798  0.00  0.00     0.068 H 
ATOM     25  C   LIG d   1       8.455   1.140  -8.679  0.00  0.00    -0.060 A 
ATOM     26  H   LIG d   1       7.263   2.498  -7.542  0.00  0.00     0.062 H 
ATOM     27  H   LIG d   1       9.353   1.330  -8.110  0.00  0.00     0.062 H 
ATOM     28  H   LIG d   1       9.382  -0.276  -9.989  0.00  0.00     0.063 H 
BRANCH  17  29
ATOM     29  N   LIG d   1       4.190  -0.973 -12.799  0.00  0.00    -0.299 N 
ATOM     30  H   LIG d   1       3.253  -0.814 -12.605  0.00  0.00     0.148 HD
ATOM     31  H   LIG d   1       4.445  -1.438 -13.612  0.00  0.00     0.148 HD
ENDBRANCH  17  29
ENDBRANCH  13  16
ENDBRANCH  11  13
ENDBRANCH   4  11
BRANCH   1  32
ATOM     32  C   LIG d   1       3.916  -0.568  -4.278  0.00  0.00    -0.018 A 
ATOM     33  C   LIG d   1       4.146   0.552  -3.480  0.00  0.00    -0.054 A 
ATOM     34  C   LIG d   1       4.392   0.397  -2.132  0.00  0.00    -0.061 A 
ATOM     35  H   LIG d   1       4.132   1.539  -3.917  0.00  0.00     0.062 H 
ATOM     36  C   LIG d   1       4.412  -0.867  -1.569  0.00  0.00    -0.062 A 
ATOM     37  H   LIG d   1       4.571   1.264  -1.513  0.00  0.00     0.062 H 
ATOM     38  C   LIG d   1       4.184  -1.982  -2.355  0.00  0.00    -0.061 A 
ATOM     39  H   LIG d   1       4.609  -0.984  -0.515  0.00  0.00     0.062 H 
ATOM     40  C   LIG d   1       3.937  -1.839  -3.705  0.00  0.00    -0.054 A 
ATOM     41  H   LIG d   1       4.200  -2.967  -1.912  0.00  0.00     0.062 H 
ATOM     42  H   LIG d   1       3.759  -2.711  -4.318  0.00  0.00     0.062 H 
ENDBRANCH   1  32
TORSDOF 5
ENDMDL
MODEL 3
REMARK VINA RESULT:      -6.6      1.621      2.080
REMARK  5 active torsions:
REMARK  status: ('A' for Active; 'I' for Inactive)
REMARK    1  A    between atoms: C_4  and  C_7 
REMARK    2  A    between atoms: C_10  and  C_13 
REMARK    3  A    between atoms: C_13  and  C_15 
REMARK    4  A    between atoms: C_15  and  N_16 
REMARK    5  A    between atoms: C_24  and  N_25 
ROOT
ATOM      1  C   LIG d   1       9.901   4.907  -3.075  0.00  0.00    -0.018 A 
ATOM      2  C   LIG d   1      10.425   3.753  -2.491  0.00  0.00    -0.053 A 
ATOM      3  C   LIG d   1      10.223   2.532  -3.080  0.00  0.00    -0.051 A 
ATOM      4  C   LIG d   1       9.492   2.444  -4.271  0.00  0.00     0.024 A 
ATOM      5  C   LIG d   1       8.967   3.603  -4.856  0.00  0.00    -0.051 A 
ATOM      6  C   LIG d   1       9.167   4.820  -4.259  0.00  0.00    -0.053 A 
ATOM      7  H   LIG d   1      10.989   3.822  -1.572  0.00  0.00     0.062 H 
ATOM      8  H   LIG d   1      10.629   1.639  -2.627  0.00  0.00     0.062 H 
ATOM      9  H   LIG d   1       8.404   3.536  -5.775  0.00  0.00     0.062 H 
ATOM     10  H   LIG d   1       8.759   5.715  -4.708  0.00  0.00     0.062 H 
ENDROOT
BRANCH   4  11
ATOM     11  C   LIG d   1       9.275   1.135  -4.905  0.00  0.00     0.228 C 
ATOM     12  O   LIG d   1      10.160   0.306  -4.902  0.00  0.00    -0.285 OA
BRANCH  11  13
ATOM     13  C   LIG d   1       7.953   0.825  -5.559  0.00  0.00     0.215 C 
ATOM     14  H   LIG d   1       7.298   1.693  -5.484  0.00  0.00     0.112 H 
ATOM     15  H   LIG d   1       8.116   0.583  -6.610  0.00  0.00     0.112 H 
BRANCH  13  16
ATOM     16  N   LIG d   1       7.332  -0.317  -4.886  0.00  0.00    -0.164 N 
ATOM     17  C   LIG d   1       7.655  -1.531  -5.271  0.00  0.00     0.311 A 
ATOM     18  S   LIG d   1       6.670  -2.551  -4.183  0.00  0.00     0.003 SA
ATOM     19  C   LIG d   1       5.883  -1.231  -3.290  0.00  0.00     0.091 A 
ATOM     20  C   LIG d   1       6.443  -0.083  -3.895  0.00  0.00     0.224 A 
ATOM     21  C   LIG d   1       4.967  -1.160  -2.271  0.00  0.00    -0.041 A 
ATOM     22  C   LIG d   1       6.006   1.164  -3.391  0.00  0.00     0.011 A 
ATOM     23  C   LIG d   1       5.092   1.226  -2.372  0.00  0.00    -0.056 A 
ATOM     24  H   LIG d   1       6.399   2.077  -3.813  0.00  0.00     0.068 H 
ATOM     25  C   LIG d   1       4.563   0.076  -1.802  0.00  0.00    -0.060 A 
ATOM     26  H   LIG d   1       4.775   2.191  -2.005  0.00  0.00     0.062 H 
ATOM     27  H   LIG d   1       3.844   0.147  -0.999  0.00  0.00     0.062 H 
ATOM     28  H   LIG d   1       4.566  -2.063  -1.837  0.00  0.00     0.063 H 
BRANCH  17  29
ATOM     29  N   LIG d   1       8.534  -1.919  -6.261  0.00  0.00    -0.299 N 
ATOM     30  H   LIG d   1       8.542  -2.838  -6.570  0.00  0.00     0.148 HD
ATOM     31  H   LIG d   1       9.144  -1.271  -6.647  0.00  0.00     0.148 HD
ENDBRANCH  17  29
ENDBRANCH  13  16
ENDBRANCH  11  13
ENDBRANCH   4  11
BRANCH   1  32
ATOM     32  C   LIG d   1      10.120   6.226  -2.435  0.00  0.00    -0.018 A 
ATOM     33  C   LIG d   1      10.304   6.313  -1.056  0.00  0.00    -0.054 A 
ATOM     34  C   LIG d   1      10.508   7.543  -0.466  0.00  0.00    -0.061 A 
ATOM     35  H   LIG d   1      10.288   5.419  -0.450  0.00  0.00     0.062 H 
ATOM     36  C   LIG d   1      10.529   8.690  -1.240  0.00  0.00    -0.062 A 
ATOM     37  H   LIG d   1      10.651   7.612   0.602  0.00  0.00     0.062 H 
ATOM     38  C   LIG d   1      10.347   8.610  -2.609  0.00  0.00    -0.061 A 
ATOM     39  H   LIG d   1      10.684   9.651  -0.773  0.00  0.00     0.062 H 
ATOM     40  C   LIG d   1      10.142   7.385  -3.210  0.00  0.00    -0.054 A 
ATOM     41  H   LIG d   1      10.364   9.508  -3.208  0.00  0.00     0.062 H 
ATOM     42  H   LIG d   1      10.000   7.324  -4.279  0.00  0.00     0.062 H 
ENDBRANCH   1  32
TORSDOF 5
ENDMDL
MODEL 4
REMARK VINA RESULT:      -6.6      1.426      2.183
REMARK  5 active torsions:
REMARK  status: ('A' for Active; 'I' for Inactive)
REMARK    1  A    between atoms: C_4  and  C_7 
REMARK    2  A    between atoms: C_10  and  C_13 
REMARK    3  A    between atoms: C_13  and  C_15 
REMARK    4  A    between atoms: C_15  and  N_16 
REMARK    5  A    between atoms: C_24  and  N_25 
ROOT
ATOM      1  C   LIG d   1       9.289   3.869  -4.552  0.00  0.00    -0.018 A 
ATOM      2  C   LIG d   1       9.152   2.931  -3.528  0.00  0.00    -0.053 A 
ATOM      3  C   LIG d   1       8.910   1.616  -3.828  0.00  0.00    -0.051 A 
ATOM      4  C   LIG d   1       8.803   1.214  -5.165  0.00  0.00     0.024 A 
ATOM      5  C   LIG d   1       8.941   2.156  -6.191  0.00  0.00    -0.051 A 
ATOM      6  C   LIG d   1       9.178   3.471  -5.885  0.00  0.00    -0.053 A 
ATOM      7  H   LIG d   1       9.235   3.243  -2.497  0.00  0.00     0.062 H 
ATOM      8  H   LIG d   1       8.804   0.891  -3.035  0.00  0.00     0.062 H 
ATOM      9  H   LIG d   1       8.860   1.847  -7.223  0.00  0.00     0.062 H 
ATOM     10  H   LIG d   1       9.281   4.199  -6.677  0.00  0.00     0.062 H 
ENDROOT
BRANCH   4  11
ATOM     11  C   LIG d   1       8.544  -0.197  -5.490  0.00  0.00     0.228 C 
ATOM     12  O   LIG d   1       9.048  -0.695  -6.473  0.00  0.00    -0.285 OA
BRANCH  11  13
ATOM     13  C   LIG d   1       7.652  -1.023  -4.599  0.00  0.00     0.215 C 
ATOM     14  H   LIG d   1       7.884  -2.080  -4.732  0.00  0.00     0.112 H 
ATOM     15  H   LIG d   1       7.818  -0.743  -3.558  0.00  0.00     0.112 H 
BRANCH  13  16
ATOM     16  N   LIG d   1       6.252  -0.781  -4.951  0.00  0.00    -0.164 N 
ATOM     17  C   LIG d   1       5.815  -1.187  -6.123  0.00  0.00     0.311 A 
ATOM     18  S   LIG d   1       4.101  -0.683  -6.086  0.00  0.00     0.003 SA
ATOM     19  C   LIG d   1       4.118   0.053  -4.468  0.00  0.00     0.091 A 
ATOM     20  C   LIG d   1       5.457  -0.146  -4.062  0.00  0.00     0.224 A 
ATOM     21  C   LIG d   1       3.189   0.681  -3.678  0.00  0.00    -0.041 A 
ATOM     22  C   LIG d   1       5.799   0.343  -2.779  0.00  0.00     0.011 A 
ATOM     23  C   LIG d   1       4.865   0.969  -1.996  0.00  0.00    -0.056 A 
ATOM     24  H   LIG d   1       6.808   0.220  -2.413  0.00  0.00     0.068 H 
ATOM     25  C   LIG d   1       3.558   1.146  -2.429  0.00  0.00    -0.060 A 
ATOM     26  H   LIG d   1       5.152   1.333  -1.021  0.00  0.00     0.062 H 
ATOM     27  H   LIG d   1       2.837   1.642  -1.796  0.00  0.00     0.062 H 
ATOM     28  H   LIG d   1       2.176   0.811  -4.028  0.00  0.00     0.063 H 
BRANCH  17  29
ATOM     29  N   LIG d   1       6.505  -1.838  -7.125  0.00  0.00    -0.299 N 
ATOM     30  H   LIG d   1       7.473  -1.790  -7.157  0.00  0.00     0.148 HD
ATOM     31  H   LIG d   1       6.021  -2.343  -7.797  0.00  0.00     0.148 HD
ENDBRANCH  17  29
ENDBRANCH  13  16
ENDBRANCH  11  13
ENDBRANCH   4  11
BRANCH   1  32
ATOM     32  C   LIG d   1       9.551   5.291  -4.224  0.00  0.00    -0.018 A 
ATOM     33  C   LIG d   1       9.477   6.265  -5.219  0.00  0.00    -0.054 A 
ATOM     34  C   LIG d   1       9.721   7.586  -4.907  0.00  0.00    -0.061 A 
ATOM     35  H   LIG d   1       9.229   5.985  -6.232  0.00  0.00     0.062 H 
ATOM     36  C   LIG d   1      10.040   7.946  -3.609  0.00  0.00    -0.062 A 
ATOM     37  H   LIG d   1       9.664   8.341  -5.677  0.00  0.00     0.062 H 
ATOM     38  C   LIG d   1      10.114   6.985  -2.618  0.00  0.00    -0.061 A 
ATOM     39  H   LIG d   1      10.234   8.981  -3.371  0.00  0.00     0.062 H 
ATOM     40  C   LIG d   1       9.872   5.660  -2.918  0.00  0.00    -0.054 A 
ATOM     41  H   LIG d   1      10.362   7.271  -1.607  0.00  0.00     0.062 H 
ATOM     42  H   LIG d   1       9.930   4.910  -2.143  0.00  0.00     0.062 H 
ENDBRANCH   1  32
TORSDOF 5
ENDMDL
MODEL 5
REMARK VINA RESULT:      -6.5      6.477      8.523
REMARK  5 active torsions:
REMARK  status: ('A' for Active; 'I' for Inactive)
REMARK    1  A    between atoms: C_4  and  C_7 
REMARK    2  A    between atoms: C_10  and  C_13 
REMARK    3  A    between atoms: C_13  and  C_15 
REMARK    4  A    between atoms: C_15  and  N_16 
REMARK    5  A    between atoms: C_24  and  N_25 
ROOT
ATOM      1  C   LIG d   1       3.911  -0.328  -6.056  0.00  0.00    -0.018 A 
ATOM      2  C   LIG d   1       2.777   0.305  -6.567  0.00  0.00    -0.053 A 
ATOM      3  C   LIG d   1       2.686   0.571  -7.909  0.00  0.00    -0.051 A 
ATOM      4  C   LIG d   1       3.731   0.206  -8.766  0.00  0.00     0.024 A 
ATOM      5  C   LIG d   1       4.868  -0.427  -8.250  0.00  0.00    -0.051 A 
ATOM      6  C   LIG d   1       4.956  -0.686  -6.908  0.00  0.00    -0.053 A 
ATOM      7  H   LIG d   1       1.971   0.585  -5.905  0.00  0.00     0.062 H 
ATOM      8  H   LIG d   1       1.807   1.060  -8.305  0.00  0.00     0.062 H 
ATOM      9  H   LIG d   1       5.675  -0.710  -8.910  0.00  0.00     0.062 H 
ATOM     10  H   LIG d   1       5.835  -1.173  -6.509  0.00  0.00     0.062 H 
ENDROOT
BRANCH   4  11
ATOM     11  C   LIG d   1       3.635   0.491 -10.205  0.00  0.00     0.228 C 
ATOM     12  O   LIG d   1       4.201   1.456 -10.672  0.00  0.00    -0.285 OA
BRANCH  11  13
ATOM     13  C   LIG d   1       2.832  -0.418 -11.100  0.00  0.00     0.215 C 
ATOM     14  H   LIG d   1       2.001  -0.842 -10.536  0.00  0.00     0.112 H 
ATOM     15  H   LIG d   1       2.443   0.154 -11.944  0.00  0.00     0.112 H 
BRANCH  13  16
ATOM     16  N   LIG d   1       3.688  -1.497 -11.596  0.00  0.00    -0.164 N 
ATOM     17  C   LIG d   1       4.456  -1.268 -12.637  0.00  0.00     0.311 A 
ATOM     18  S   LIG d   1       5.286  -2.836 -12.851  0.00  0.00     0.003 SA
ATOM     19  C   LIG d   1       4.509  -3.687 -11.498  0.00  0.00     0.091 A 
ATOM     20  C   LIG d   1       3.657  -2.693 -10.967  0.00  0.00     0.224 A 
ATOM     21  C   LIG d   1       4.592  -4.951 -10.972  0.00  0.00    -0.041 A 
ATOM     22  C   LIG d   1       2.879  -3.070  -9.847  0.00  0.00     0.011 A 
ATOM     23  C   LIG d   1       2.968  -4.335  -9.327  0.00  0.00    -0.056 A 
ATOM     24  H   LIG d   1       2.209  -2.353  -9.397  0.00  0.00     0.068 H 
ATOM     25  C   LIG d   1       3.818  -5.286  -9.876  0.00  0.00    -0.060 A 
ATOM     26  H   LIG d   1       2.364  -4.598  -8.472  0.00  0.00     0.062 H 
ATOM     27  H   LIG d   1       3.873  -6.278  -9.451  0.00  0.00     0.062 H 
ATOM     28  H   LIG d   1       5.258  -5.680 -11.409  0.00  0.00     0.063 H 
BRANCH  17  29
ATOM     29  N   LIG d   1       4.588  -0.111 -13.376  0.00  0.00    -0.299 N 
ATOM     30  H   LIG d   1       5.172  -0.093 -14.150  0.00  0.00     0.148 HD
ATOM     31  H   LIG d   1       4.096   0.686 -13.121  0.00  0.00     0.148 HD
ENDBRANCH  17  29
ENDBRANCH  13  16
ENDBRANCH  11  13
ENDBRANCH   4  11
BRANCH   1  32
ATOM     32  C   LIG d   1       4.007  -0.614  -4.605  0.00  0.00    -0.018 A 
ATOM     33  C   LIG d   1       4.289  -1.906  -4.162  0.00  0.00    -0.054 A 
ATOM     34  C   LIG d   1       4.377  -2.166  -2.811  0.00  0.00    -0.061 A 
ATOM     35  H   LIG d   1       4.439  -2.701  -4.877  0.00  0.00     0.062 H 
ATOM     36  C   LIG d   1       4.185  -1.148  -1.893  0.00  0.00    -0.062 A 
ATOM     37  H   LIG d   1       4.595  -3.166  -2.467  0.00  0.00     0.062 H 
ATOM     38  C   LIG d   1       3.905   0.136  -2.325  0.00  0.00    -0.061 A 
ATOM     39  H   LIG d   1       4.251  -1.357  -0.836  0.00  0.00     0.062 H 
ATOM     40  C   LIG d   1       3.815   0.408  -3.675  0.00  0.00    -0.054 A 
ATOM     41  H   LIG d   1       3.757   0.927  -1.606  0.00  0.00     0.062 H 
ATOM     42  H   LIG d   1       3.596   1.411  -4.011  0.00  0.00     0.062 H 
ENDBRANCH   1  32
TORSDOF 5
ENDMDL
MODEL 6
REMARK VINA RESULT:      -6.4      5.250     10.220
REMARK  5 active torsions:
REMARK  status: ('A' for Active; 'I' for Inactive)
REMARK    1  A    between atoms: C_4  and  C_7 
REMARK    2  A    between atoms: C_10  and  C_13 
REMARK    3  A    between atoms: C_13  and  C_15 
REMARK    4  A    between atoms: C_15  and  N_16 
REMARK    5  A    between atoms: C_24  and  N_25 
ROOT
ATOM      1  C   LIG d   1       3.139  -0.866 -11.727  0.00  0.00    -0.018 A 
ATOM      2  C   LIG d   1       2.333  -1.542 -10.809  0.00  0.00    -0.053 A 
ATOM      3  C   LIG d   1       2.409  -1.237  -9.474  0.00  0.00    -0.051 A 
ATOM      4  C   LIG d   1       3.294  -0.246  -9.033  0.00  0.00     0.024 A 
ATOM      5  C   LIG d   1       4.101   0.431  -9.956  0.00  0.00    -0.051 A 
ATOM      6  C   LIG d   1       4.025   0.118 -11.288  0.00  0.00    -0.053 A 
ATOM      7  H   LIG d   1       1.651  -2.306 -11.150  0.00  0.00     0.062 H 
ATOM      8  H   LIG d   1       1.785  -1.760  -8.764  0.00  0.00     0.062 H 
ATOM      9  H   LIG d   1       4.784   1.196  -9.618  0.00  0.00     0.062 H 
ATOM     10  H   LIG d   1       4.651   0.638 -12.001  0.00  0.00     0.062 H 
ENDROOT
BRANCH   4  11
ATOM     11  C   LIG d   1       3.376   0.083  -7.603  0.00  0.00     0.228 C 
ATOM     12  O   LIG d   1       3.143   1.211  -7.225  0.00  0.00    -0.285 OA
BRANCH  11  13
ATOM     13  C   LIG d   1       3.749  -0.984  -6.605  0.00  0.00     0.215 C 
ATOM     14  H   LIG d   1       2.889  -1.210  -5.975  0.00  0.00     0.112 H 
ATOM     15  H   LIG d   1       4.058  -1.885  -7.136  0.00  0.00     0.112 H 
BRANCH  13  16
ATOM     16  N   LIG d   1       4.854  -0.507  -5.771  0.00  0.00    -0.164 N 
ATOM     17  C   LIG d   1       6.072  -0.519  -6.265  0.00  0.00     0.311 A 
ATOM     18  S   LIG d   1       7.038   0.139  -4.915  0.00  0.00     0.003 SA
ATOM     19  C   LIG d   1       5.698   0.371  -3.772  0.00  0.00     0.091 A 
ATOM     20  C   LIG d   1       4.585  -0.074  -4.519  0.00  0.00     0.224 A 
ATOM     21  C   LIG d   1       5.588   0.839  -2.487  0.00  0.00    -0.041 A 
ATOM     22  C   LIG d   1       3.331  -0.014  -3.868  0.00  0.00     0.011 A 
ATOM     23  C   LIG d   1       3.230   0.456  -2.584  0.00  0.00    -0.056 A 
ATOM     24  H   LIG d   1       2.443  -0.341  -4.389  0.00  0.00     0.068 H 
ATOM     25  C   LIG d   1       4.346   0.886  -1.881  0.00  0.00    -0.060 A 
ATOM     26  H   LIG d   1       2.261   0.492  -2.110  0.00  0.00     0.062 H 
ATOM     27  H   LIG d   1       4.246   1.253  -0.870  0.00  0.00     0.062 H 
ATOM     28  H   LIG d   1       6.466   1.172  -1.953  0.00  0.00     0.063 H 
BRANCH  17  29
ATOM     29  N   LIG d   1       6.494  -0.932  -7.512  0.00  0.00    -0.299 N 
ATOM     30  H   LIG d   1       7.375  -0.685  -7.833  0.00  0.00     0.148 HD
ATOM     31  H   LIG d   1       5.908  -1.469  -8.068  0.00  0.00     0.148 HD
ENDBRANCH  17  29
ENDBRANCH  13  16
ENDBRANCH  11  13
ENDBRANCH   4  11
BRANCH   1  32
ATOM     32  C   LIG d   1       3.055  -1.198 -13.169  0.00  0.00    -0.018 A 
ATOM     33  C   LIG d   1       2.054  -2.049 -13.635  0.00  0.00    -0.054 A 
ATOM     34  C   LIG d   1       1.981  -2.354 -14.978  0.00  0.00    -0.061 A 
ATOM     35  H   LIG d   1       1.336  -2.468 -12.945  0.00  0.00     0.062 H 
ATOM     36  C   LIG d   1       2.900  -1.818 -15.863  0.00  0.00    -0.062 A 
ATOM     37  H   LIG d   1       1.206  -3.013 -15.340  0.00  0.00     0.062 H 
ATOM     38  C   LIG d   1       3.896  -0.974 -15.407  0.00  0.00    -0.061 A 
ATOM     39  H   LIG d   1       2.842  -2.064 -16.913  0.00  0.00     0.062 H 
ATOM     40  C   LIG d   1       3.978  -0.661 -14.065  0.00  0.00    -0.054 A 
ATOM     41  H   LIG d   1       4.610  -0.558 -16.102  0.00  0.00     0.062 H 
ATOM     42  H   LIG d   1       4.756  -0.001 -13.711  0.00  0.00     0.062 H 
ENDBRANCH   1  32
TORSDOF 5
ENDMDL
MODEL 7
REMARK VINA RESULT:      -6.4      5.782      8.555
REMARK  5 active torsions:
REMARK  status: ('A' for Active; 'I' for Inactive)
REMARK    1  A    between atoms: C_4  and  C_7 
REMARK    2  A    between atoms: C_10  and  C_13 
REMARK    3  A    between atoms: C_13  and  C_15 
REMARK    4  A    between atoms: C_15  and  N_16 
REMARK    5  A    between atoms: C_24  and  N_25 
ROOT
ATOM      1  C   LIG d   1       5.872  -2.456  -4.219  0.00  0.00    -0.018 A 
ATOM      2  C   LIG d   1       4.927  -3.449  -4.485  0.00  0.00    -0.053 A 
ATOM      3  C   LIG d   1       5.275  -4.544  -5.232  0.00  0.00    -0.051 A 
ATOM      4  C   LIG d   1       6.579  -4.668  -5.726  0.00  0.00     0.024 A 
ATOM      5  C   LIG d   1       7.524  -3.670  -5.459  0.00  0.00    -0.051 A 
ATOM      6  C   LIG d   1       7.170  -2.574  -4.716  0.00  0.00    -0.053 A 
ATOM      7  H   LIG d   1       3.922  -3.353  -4.102  0.00  0.00     0.062 H 
ATOM      8  H   LIG d   1       4.544  -5.313  -5.437  0.00  0.00     0.062 H 
ATOM      9  H   LIG d   1       8.531  -3.764  -5.839  0.00  0.00     0.062 H 
ATOM     10  H   LIG d   1       7.899  -1.802  -4.512  0.00  0.00     0.062 H 
ENDROOT
BRANCH   4  11
ATOM     11  C   LIG d   1       6.953  -5.842  -6.527  0.00  0.00     0.228 C 
ATOM     12  O   LIG d   1       6.151  -6.338  -7.289  0.00  0.00    -0.285 OA
BRANCH  11  13
ATOM     13  C   LIG d   1       8.335  -6.431  -6.401  0.00  0.00     0.215 C 
ATOM     14  H   LIG d   1       8.591  -6.960  -7.319  0.00  0.00     0.112 H 
ATOM     15  H   LIG d   1       9.056  -5.630  -6.230  0.00  0.00     0.112 H 
BRANCH  13  16
ATOM     16  N   LIG d   1       8.367  -7.364  -5.273  0.00  0.00    -0.164 N 
ATOM     17  C   LIG d   1       7.839  -8.558  -5.424  0.00  0.00     0.311 A 
ATOM     18  S   LIG d   1       8.118  -9.304  -3.825  0.00  0.00     0.003 SA
ATOM     19  C   LIG d   1       8.930  -7.916  -3.069  0.00  0.00     0.091 A 
ATOM     20  C   LIG d   1       8.934  -6.965  -4.113  0.00  0.00     0.224 A 
ATOM     21  C   LIG d   1       9.467  -7.662  -1.832  0.00  0.00    -0.041 A 
ATOM     22  C   LIG d   1       9.529  -5.716  -3.818  0.00  0.00     0.011 A 
ATOM     23  C   LIG d   1      10.064  -5.471  -2.580  0.00  0.00    -0.056 A 
ATOM     24  H   LIG d   1       9.563  -4.948  -4.576  0.00  0.00     0.068 H 
ATOM     25  C   LIG d   1      10.042  -6.430  -1.577  0.00  0.00    -0.060 A 
ATOM     26  H   LIG d   1      10.512  -4.509  -2.379  0.00  0.00     0.062 H 
ATOM     27  H   LIG d   1      10.469  -6.218  -0.609  0.00  0.00     0.062 H 
ATOM     28  H   LIG d   1       9.443  -8.420  -1.063  0.00  0.00     0.063 H 
BRANCH  17  29
ATOM     29  N   LIG d   1       7.228  -9.098  -6.538  0.00  0.00    -0.299 N 
ATOM     30  H   LIG d   1       7.754  -9.316  -7.322  0.00  0.00     0.148 HD
ATOM     31  H   LIG d   1       6.271  -9.258  -6.534  0.00  0.00     0.148 HD
ENDBRANCH  17  29
ENDBRANCH  13  16
ENDBRANCH  11  13
ENDBRANCH   4  11
BRANCH   1  32
ATOM     32  C   LIG d   1       5.493  -1.272  -3.412  0.00  0.00    -0.018 A 
ATOM     33  C   LIG d   1       6.049  -0.025  -3.693  0.00  0.00    -0.054 A 
ATOM     34  C   LIG d   1       5.693   1.073  -2.938  0.00  0.00    -0.061 A 
ATOM     35  H   LIG d   1       6.758   0.081  -4.501  0.00  0.00     0.062 H 
ATOM     36  C   LIG d   1       4.785   0.939  -1.902  0.00  0.00    -0.062 A 
ATOM     37  H   LIG d   1       6.123   2.039  -3.155  0.00  0.00     0.062 H 
ATOM     38  C   LIG d   1       4.230  -0.296  -1.618  0.00  0.00    -0.061 A 
ATOM     39  H   LIG d   1       4.513   1.800  -1.311  0.00  0.00     0.062 H 
ATOM     40  C   LIG d   1       4.579  -1.401  -2.367  0.00  0.00    -0.054 A 
ATOM     41  H   LIG d   1       3.522  -0.395  -0.809  0.00  0.00     0.062 H 
ATOM     42  H   LIG d   1       4.144  -2.364  -2.144  0.00  0.00     0.062 H 
ENDBRANCH   1  32
TORSDOF 5
ENDMDL
MODEL 8
REMARK VINA RESULT:      -6.2      6.196      8.976
REMARK  5 active torsions:
REMARK  status: ('A' for Active; 'I' for Inactive)
REMARK    1  A    between atoms: C_4  and  C_7 
REMARK    2  A    between atoms: C_10  and  C_13 
REMARK    3  A    between atoms: C_13  and  C_15 
REMARK    4  A    between atoms: C_15  and  N_16 
REMARK    5  A    between atoms: C_24  and  N_25 
ROOT
ATOM      1  C   LIG d   1       5.765  -2.295  -3.921  0.00  0.00    -0.018 A 
ATOM      2  C   LIG d   1       7.148  -2.389  -3.761  0.00  0.00    -0.053 A 
ATOM      3  C   LIG d   1       7.832  -3.450  -4.297  0.00  0.00    -0.051 A 
ATOM      4  C   LIG d   1       7.140  -4.438  -5.008  0.00  0.00     0.024 A 
ATOM      5  C   LIG d   1       5.753  -4.342  -5.167  0.00  0.00    -0.051 A 
ATOM      6  C   LIG d   1       5.074  -3.282  -4.624  0.00  0.00    -0.053 A 
ATOM      7  H   LIG d   1       7.681  -1.625  -3.213  0.00  0.00     0.062 H 
ATOM      8  H   LIG d   1       8.902  -3.521  -4.173  0.00  0.00     0.062 H 
ATOM      9  H   LIG d   1       5.218  -5.104  -5.716  0.00  0.00     0.062 H 
ATOM     10  H   LIG d   1       4.002  -3.210  -4.744  0.00  0.00     0.062 H 
ENDROOT
BRANCH   4  11
ATOM     11  C   LIG d   1       7.872  -5.576  -5.584  0.00  0.00     0.228 C 
ATOM     12  O   LIG d   1       8.948  -5.898  -5.130  0.00  0.00    -0.285 OA
BRANCH  11  13
ATOM     13  C   LIG d   1       7.282  -6.342  -6.741  0.00  0.00     0.215 C 
ATOM     14  H   LIG d   1       6.205  -6.176  -6.775  0.00  0.00     0.112 H 
ATOM     15  H   LIG d   1       7.732  -5.997  -7.672  0.00  0.00     0.112 H 
BRANCH  13  16
ATOM     16  N   LIG d   1       7.552  -7.771  -6.568  0.00  0.00    -0.164 N 
ATOM     17  C   LIG d   1       8.651  -8.274  -7.083  0.00  0.00     0.311 A 
ATOM     18  S   LIG d   1       8.536  -9.996  -6.618  0.00  0.00     0.003 SA
ATOM     19  C   LIG d   1       6.983  -9.893  -5.761  0.00  0.00     0.091 A 
ATOM     20  C   LIG d   1       6.659  -8.524  -5.889  0.00  0.00     0.224 A 
ATOM     21  C   LIG d   1       6.179 -10.787  -5.100  0.00  0.00    -0.041 A 
ATOM     22  C   LIG d   1       5.444  -8.112  -5.293  0.00  0.00     0.011 A 
ATOM     23  C   LIG d   1       4.646  -9.011  -4.634  0.00  0.00    -0.056 A 
ATOM     24  H   LIG d   1       5.142  -7.077  -5.357  0.00  0.00     0.068 H 
ATOM     25  C   LIG d   1       4.998 -10.350  -4.528  0.00  0.00    -0.060 A 
ATOM     26  H   LIG d   1       3.724  -8.671  -4.188  0.00  0.00     0.062 H 
ATOM     27  H   LIG d   1       4.356 -11.043  -4.004  0.00  0.00     0.062 H 
ATOM     28  H   LIG d   1       6.467 -11.825  -5.025  0.00  0.00     0.063 H 
BRANCH  17  29
ATOM     29  N   LIG d   1       9.642  -7.634  -7.798  0.00  0.00    -0.299 N 
ATOM     30  H   LIG d   1       9.555  -7.525  -8.757  0.00  0.00     0.148 HD
ATOM     31  H   LIG d   1      10.427  -7.294  -7.340  0.00  0.00     0.148 HD
ENDBRANCH  17  29
ENDBRANCH  13  16
ENDBRANCH  11  13
ENDBRANCH   4  11
BRANCH   1  32
ATOM     32  C   LIG d   1       5.029  -1.148  -3.340  0.00  0.00    -0.018 A 
ATOM     33  C   LIG d   1       3.636  -1.163  -3.286  0.00  0.00    -0.054 A 
ATOM     34  C   LIG d   1       2.957  -0.092  -2.744  0.00  0.00    -0.061 A 
ATOM     35  H   LIG d   1       3.090  -2.013  -3.667  0.00  0.00     0.062 H 
ATOM     36  C   LIG d   1       3.655   0.998  -2.254  0.00  0.00    -0.062 A 
ATOM     37  H   LIG d   1       1.878  -0.104  -2.701  0.00  0.00     0.062 H 
ATOM     38  C   LIG d   1       5.037   1.019  -2.305  0.00  0.00    -0.061 A 
ATOM     39  H   LIG d   1       3.119   1.835  -1.835  0.00  0.00     0.062 H 
ATOM     40  C   LIG d   1       5.727  -0.047  -2.845  0.00  0.00    -0.054 A 
ATOM     41  H   LIG d   1       5.577   1.872  -1.921  0.00  0.00     0.062 H 
ATOM     42  H   LIG d   1       6.806  -0.028  -2.884  0.00  0.00     0.062 H 
ENDBRANCH   1  32
TORSDOF 5
ENDMDL
MODEL 9
REMARK VINA RESULT:      -6.1      3.837      7.635
REMARK  5 active torsions:
REMARK  status: ('A' for Active; 'I' for Inactive)
REMARK    1  A    between atoms: C_4  and  C_7 
REMARK    2  A    between atoms: C_10  and  C_13 
REMARK    3  A    between atoms: C_13  and  C_15 
REMARK    4  A    between atoms: C_15  and  N_16 
REMARK    5  A    between atoms: C_24  and  N_25 
ROOT
ATOM      1  C   LIG d   1       6.849   0.486  -4.547  0.00  0.00    -0.018 A 
ATOM      2  C   LIG d   1       7.665   1.506  -4.057  0.00  0.00    -0.053 A 
ATOM      3  C   LIG d   1       8.540   2.148  -4.895  0.00  0.00    -0.051 A 
ATOM      4  C   LIG d   1       8.610   1.782  -6.244  0.00  0.00     0.024 A 
ATOM      5  C   LIG d   1       7.790   0.758  -6.733  0.00  0.00    -0.051 A 
ATOM      6  C   LIG d   1       6.922   0.115  -5.890  0.00  0.00    -0.053 A 
ATOM      7  H   LIG d   1       7.609   1.789  -3.015  0.00  0.00     0.062 H 
ATOM      8  H   LIG d   1       9.171   2.938  -4.515  0.00  0.00     0.062 H 
ATOM      9  H   LIG d   1       7.843   0.474  -7.774  0.00  0.00     0.062 H 
ATOM     10  H   LIG d   1       6.291  -0.677  -6.266  0.00  0.00     0.062 H 
ENDROOT
BRANCH   4  11
ATOM     11  C   LIG d   1       9.547   2.470  -7.145  0.00  0.00     0.228 C 
ATOM     12  O   LIG d   1       9.339   2.485  -8.339  0.00  0.00    -0.285 OA
BRANCH  11  13
ATOM     13  C   LIG d   1      10.765   3.157  -6.582  0.00  0.00     0.215 C 
ATOM     14  H   LIG d   1      10.656   3.265  -5.503  0.00  0.00     0.112 H 
ATOM     15  H   LIG d   1      11.651   2.560  -6.800  0.00  0.00     0.112 H 
BRANCH  13  16
ATOM     16  N   LIG d   1      10.906   4.479  -7.195  0.00  0.00    -0.164 N 
ATOM     17  C   LIG d   1      11.587   4.590  -8.313  0.00  0.00     0.311 A 
ATOM     18  S   LIG d   1      11.476   6.340  -8.656  0.00  0.00     0.003 SA
ATOM     19  C   LIG d   1      10.509   6.786  -7.233  0.00  0.00     0.091 A 
ATOM     20  C   LIG d   1      10.333   5.542  -6.587  0.00  0.00     0.224 A 
ATOM     21  C   LIG d   1       9.990   7.957  -6.741  0.00  0.00    -0.041 A 
ATOM     22  C   LIG d   1       9.583   5.562  -5.388  0.00  0.00     0.011 A 
ATOM     23  C   LIG d   1       9.067   6.736  -4.904  0.00  0.00    -0.056 A 
ATOM     24  H   LIG d   1       9.415   4.641  -4.848  0.00  0.00     0.068 H 
ATOM     25  C   LIG d   1       9.260   7.940  -5.567  0.00  0.00    -0.060 A 
ATOM     26  H   LIG d   1       8.498   6.724  -3.986  0.00  0.00     0.062 H 
ATOM     27  H   LIG d   1       8.845   8.854  -5.169  0.00  0.00     0.062 H 
ATOM     28  H   LIG d   1      10.147   8.886  -7.269  0.00  0.00     0.063 H 
BRANCH  17  29
ATOM     29  N   LIG d   1      12.225   3.604  -9.038  0.00  0.00    -0.299 N 
ATOM     30  H   LIG d   1      11.719   2.852  -9.382  0.00  0.00     0.148 HD
ATOM     31  H   LIG d   1      13.179   3.664  -9.202  0.00  0.00     0.148 HD
ENDBRANCH  17  29
ENDBRANCH  13  16
ENDBRANCH  11  13
ENDBRANCH   4  11
BRANCH   1  32
ATOM     32  C   LIG d   1       5.905  -0.207  -3.638  0.00  0.00    -0.018 A 
ATOM     33  C   LIG d   1       5.569  -1.542  -3.862  0.00  0.00    -0.054 A 
ATOM     34  C   LIG d   1       4.690  -2.181  -3.013  0.00  0.00    -0.061 A 
ATOM     35  H   LIG d   1       5.996  -2.074  -4.699  0.00  0.00     0.062 H 
ATOM     36  C   LIG d   1       4.141  -1.501  -1.940  0.00  0.00    -0.062 A 
ATOM     37  H   LIG d   1       4.429  -3.215  -3.185  0.00  0.00     0.062 H 
ATOM     38  C   LIG d   1       4.470  -0.177  -1.712  0.00  0.00    -0.061 A 
ATOM     39  H   LIG d   1       3.450  -2.004  -1.280  0.00  0.00     0.062 H 
ATOM     40  C   LIG d   1       5.349   0.473  -2.555  0.00  0.00    -0.054 A 
ATOM     41  H   LIG d   1       4.040   0.349  -0.874  0.00  0.00     0.062 H 
ATOM     42  H   LIG d   1       5.605   1.507  -2.376  0.00  0.00     0.062 H 
ENDBRANCH   1  32
TORSDOF 5
ENDMDL
