MODEL 1
REMARK VINA RESULT:      -7.5      0.000      0.000
REMARK  4 active torsions:
REMARK  status: ('A' for Active; 'I' for Inactive)
REMARK    1  A    between atoms: C_6  and  C_7 
REMARK    2  A    between atoms: C_7  and  N_45 
REMARK    3  A    between atoms: C_16  and  C_18 
REMARK    4  A    between atoms: C_20  and  C_23 
ROOT
ATOM      1  C   LIG d   1       7.004   0.306  -5.862  0.00  0.00     0.012 C 
ATOM      2  C   LIG d   1       7.183   0.812  -7.272  0.00  0.00     0.084 A 
ATOM      3  C   LIG d   1       8.034   1.811  -7.599  0.00  0.00     0.073 A 
ATOM      4  N   LIG d   1       7.934   2.000  -8.941  0.00  0.00    -0.240 NA
ATOM      5  H   LIG d   1       5.902  -0.329  -8.447  0.00  0.00     0.167 HD
ATOM      6  C   LIG d   1       7.024   1.107  -9.399  0.00  0.00     0.094 A 
ATOM      7  N   LIG d   1       6.582   0.402  -8.389  0.00  0.00    -0.344 N 
ATOM      8  C   LIG d   1       8.899   2.530  -6.596  0.00  0.00     0.043 C 
ATOM      9  C   LIG d   1       8.931   1.686  -5.314  0.00  0.00     0.066 C 
ATOM     10  H   LIG d   1       9.521   0.786  -5.486  0.00  0.00     0.096 H 
ATOM     11  H   LIG d   1       7.532  -0.640  -5.741  0.00  0.00     0.088 H 
ATOM     12  H   LIG d   1       5.944   0.165  -5.655  0.00  0.00     0.088 H 
ATOM     13  H   LIG d   1       6.714   0.997 -10.427  0.00  0.00     0.103 H 
ATOM     14  H   LIG d   1       8.476   3.511  -6.381  0.00  0.00     0.039 H 
ATOM     15  H   LIG d   1       9.908   2.639  -6.992  0.00  0.00     0.039 H 
ATOM     16  N   LIG d   1       7.543   1.334  -4.938  0.00  0.00     0.252 N 
ATOM     17  H   LIG d   1       6.959   2.176  -5.000  0.00  0.00     0.205 HD
ENDROOT
BRANCH   9  18
ATOM     18  C   LIG d   1       9.554   2.488  -4.201  0.00  0.00     0.276 A 
ATOM     19  O   LIG d   1      10.499   2.069  -3.353  0.00  0.00    -0.332 OA
ATOM     20  N   LIG d   1      10.786   2.958  -2.579  0.00  0.00    -0.056 NA
ATOM     21  C   LIG d   1      10.069   4.022  -2.831  0.00  0.00     0.202 A 
ATOM     22  N   LIG d   1       9.270   3.726  -3.879  0.00  0.00    -0.186 NA
BRANCH  21  23
ATOM     23  C   LIG d   1      10.122   5.314  -2.101  0.00  0.00     0.025 A 
ATOM     24  C   LIG d   1      10.765   5.413  -0.864  0.00  0.00    -0.033 A 
ATOM     25  C   LIG d   1      10.792   6.633  -0.219  0.00  0.00     0.028 A 
ATOM     26  H   LIG d   1      11.233   4.548  -0.418  0.00  0.00     0.064 H 
ATOM     27  N   LIG d   1      10.223   7.695  -0.756  0.00  0.00    -0.263 NA
ATOM     28  H   LIG d   1      11.286   6.720   0.737  0.00  0.00     0.083 H 
ATOM     29  C   LIG d   1       9.608   7.644  -1.921  0.00  0.00     0.028 A 
ATOM     30  C   LIG d   1       9.538   6.465  -2.635  0.00  0.00    -0.033 A 
ATOM     31  H   LIG d   1       9.154   8.539  -2.324  0.00  0.00     0.083 H 
ATOM     32  H   LIG d   1       9.036   6.431  -3.590  0.00  0.00     0.064 H 
ENDBRANCH  21  23
ENDBRANCH   9  18
BRANCH  16  33
ATOM     33  C   LIG d   1       7.510   0.829  -3.549  0.00  0.00    -0.005 C 
ATOM     34  H   LIG d   1       8.196  -0.010  -3.429  0.00  0.00     0.087 H 
ATOM     35  H   LIG d   1       7.803   1.636  -2.878  0.00  0.00     0.087 H 
BRANCH  33  36
ATOM     36  C   LIG d   1       6.109   0.385  -3.220  0.00  0.00    -0.003 A 
ATOM     37  C   LIG d   1       5.130   1.324  -2.952  0.00  0.00    -0.051 A 
ATOM     38  C   LIG d   1       3.844   0.918  -2.655  0.00  0.00    -0.026 A 
ATOM     39  H   LIG d   1       5.371   2.377  -2.981  0.00  0.00     0.062 H 
ATOM     40  C   LIG d   1       3.536  -0.432  -2.614  0.00  0.00     0.123 A 
ATOM     41  H   LIG d   1       3.079   1.652  -2.450  0.00  0.00     0.065 H 
ATOM     42  C   LIG d   1       4.519  -1.373  -2.877  0.00  0.00    -0.026 A 
ATOM     43  F   LIG d   1       2.280  -0.830  -2.318  0.00  0.00    -0.205 F 
ATOM     44  C   LIG d   1       5.803  -0.963  -3.180  0.00  0.00    -0.051 A 
ATOM     45  H   LIG d   1       4.280  -2.426  -2.845  0.00  0.00     0.065 H 
ATOM     46  H   LIG d   1       6.569  -1.697  -3.384  0.00  0.00     0.062 H 
ENDBRANCH  33  36
ENDBRANCH  16  33
TORSDOF 4
ENDMDL
MODEL 2
REMARK VINA RESULT:      -7.4      5.853     10.223
REMARK  4 active torsions:
REMARK  status: ('A' for Active; 'I' for Inactive)
REMARK    1  A    between atoms: C_6  and  C_7 
REMARK    2  A    between atoms: C_7  and  N_45 
REMARK    3  A    between atoms: C_16  and  C_18 
REMARK    4  A    between atoms: C_20  and  C_23 
ROOT
ATOM      1  C   LIG d   1       5.262  -0.326  -5.291  0.00  0.00     0.012 C 
ATOM      2  C   LIG d   1       4.972  -0.057  -3.835  0.00  0.00     0.084 A 
ATOM      3  C   LIG d   1       4.603  -1.022  -2.962  0.00  0.00     0.073 A 
ATOM      4  N   LIG d   1       4.426  -0.423  -1.755  0.00  0.00    -0.240 NA
ATOM      5  H   LIG d   1       5.266   1.984  -3.570  0.00  0.00     0.167 HD
ATOM      6  C   LIG d   1       4.694   0.893  -1.924  0.00  0.00     0.094 A 
ATOM      7  N   LIG d   1       5.020   1.099  -3.174  0.00  0.00    -0.344 N 
ATOM      8  C   LIG d   1       4.443  -2.471  -3.342  0.00  0.00     0.043 C 
ATOM      9  C   LIG d   1       5.135  -2.682  -4.696  0.00  0.00     0.066 C 
ATOM     10  H   LIG d   1       6.215  -2.622  -4.564  0.00  0.00     0.096 H 
ATOM     11  H   LIG d   1       6.339  -0.333  -5.456  0.00  0.00     0.088 H 
ATOM     12  H   LIG d   1       4.800   0.445  -5.906  0.00  0.00     0.088 H 
ATOM     13  H   LIG d   1       4.645   1.648  -1.153  0.00  0.00     0.103 H 
ATOM     14  H   LIG d   1       3.383  -2.715  -3.427  0.00  0.00     0.039 H 
ATOM     15  H   LIG d   1       4.909  -3.103  -2.586  0.00  0.00     0.039 H 
ATOM     16  N   LIG d   1       4.667  -1.641  -5.638  0.00  0.00     0.252 N 
ATOM     17  H   LIG d   1       3.644  -1.570  -5.574  0.00  0.00     0.205 HD
ENDROOT
BRANCH   9  18
ATOM     18  C   LIG d   1       4.770  -4.039  -5.240  0.00  0.00     0.276 A 
ATOM     19  O   LIG d   1       3.623  -4.370  -5.841  0.00  0.00    -0.332 OA
ATOM     20  N   LIG d   1       3.646  -5.540  -6.164  0.00  0.00    -0.056 NA
ATOM     21  C   LIG d   1       4.782  -6.081  -5.808  0.00  0.00     0.202 A 
ATOM     22  N   LIG d   1       5.514  -5.116  -5.209  0.00  0.00    -0.186 NA
BRANCH  21  23
ATOM     23  C   LIG d   1       5.189  -7.493  -6.020  0.00  0.00     0.025 A 
ATOM     24  C   LIG d   1       6.163  -8.088  -5.214  0.00  0.00    -0.033 A 
ATOM     25  C   LIG d   1       6.512  -9.403  -5.445  0.00  0.00     0.028 A 
ATOM     26  H   LIG d   1       6.638  -7.526  -4.423  0.00  0.00     0.064 H 
ATOM     27  N   LIG d   1       5.938 -10.097  -6.409  0.00  0.00    -0.263 NA
ATOM     28  H   LIG d   1       7.265  -9.871  -4.828  0.00  0.00     0.083 H 
ATOM     29  C   LIG d   1       5.014  -9.573  -7.191  0.00  0.00     0.028 A 
ATOM     30  C   LIG d   1       4.603  -8.266  -7.026  0.00  0.00    -0.033 A 
ATOM     31  H   LIG d   1       4.570 -10.177  -7.970  0.00  0.00     0.083 H 
ATOM     32  H   LIG d   1       3.843  -7.844  -7.667  0.00  0.00     0.064 H 
ENDBRANCH  21  23
ENDBRANCH   9  18
BRANCH  16  33
ATOM     33  C   LIG d   1       5.036  -2.011  -7.021  0.00  0.00    -0.005 C 
ATOM     34  H   LIG d   1       5.947  -1.495  -7.327  0.00  0.00     0.087 H 
ATOM     35  H   LIG d   1       5.197  -3.088  -7.062  0.00  0.00     0.087 H 
BRANCH  33  36
ATOM     36  C   LIG d   1       3.910  -1.635  -7.949  0.00  0.00    -0.003 A 
ATOM     37  C   LIG d   1       3.422  -2.559  -8.853  0.00  0.00    -0.051 A 
ATOM     38  C   LIG d   1       2.386  -2.217  -9.701  0.00  0.00    -0.026 A 
ATOM     39  H   LIG d   1       3.846  -3.552  -8.893  0.00  0.00     0.062 H 
ATOM     40  C   LIG d   1       1.844  -0.943  -9.653  0.00  0.00     0.123 A 
ATOM     41  H   LIG d   1       2.002  -2.941 -10.404  0.00  0.00     0.065 H 
ATOM     42  C   LIG d   1       2.338  -0.016  -8.751  0.00  0.00    -0.026 A 
ATOM     43  F   LIG d   1       0.835  -0.606 -10.485  0.00  0.00    -0.205 F 
ATOM     44  C   LIG d   1       3.370  -0.363  -7.900  0.00  0.00    -0.051 A 
ATOM     45  H   LIG d   1       1.917   0.978  -8.713  0.00  0.00     0.065 H 
ATOM     46  H   LIG d   1       3.756   0.361  -7.196  0.00  0.00     0.062 H 
ENDBRANCH  33  36
ENDBRANCH  16  33
TORSDOF 4
ENDMDL
MODEL 3
REMARK VINA RESULT:      -7.2      3.240      4.988
REMARK  4 active torsions:
REMARK  status: ('A' for Active; 'I' for Inactive)
REMARK    1  A    between atoms: C_6  and  C_7 
REMARK    2  A    between atoms: C_7  and  N_45 
REMARK    3  A    between atoms: C_16  and  C_18 
REMARK    4  A    between atoms: C_20  and  C_23 
ROOT
ATOM      1  C   LIG d   1       4.558  -4.041  -5.761  0.00  0.00     0.012 C 
ATOM      2  C   LIG d   1       4.160  -4.189  -7.208  0.00  0.00     0.084 A 
ATOM      3  C   LIG d   1       4.557  -3.334  -8.178  0.00  0.00     0.073 A 
ATOM      4  N   LIG d   1       4.013  -3.770  -9.344  0.00  0.00    -0.240 NA
ATOM      5  H   LIG d   1       2.962  -5.887  -7.292  0.00  0.00     0.167 HD
ATOM      6  C   LIG d   1       3.298  -4.883  -9.055  0.00  0.00     0.094 A 
ATOM      7  N   LIG d   1       3.394  -5.123  -7.772  0.00  0.00    -0.344 N 
ATOM      8  C   LIG d   1       5.443  -2.141  -7.924  0.00  0.00     0.043 C 
ATOM      9  C   LIG d   1       6.091  -2.323  -6.544  0.00  0.00     0.066 C 
ATOM     10  H   LIG d   1       6.831  -3.121  -6.593  0.00  0.00     0.096 H 
ATOM     11  H   LIG d   1       5.342  -4.759  -5.520  0.00  0.00     0.088 H 
ATOM     12  H   LIG d   1       3.692  -4.214  -5.122  0.00  0.00     0.088 H 
ATOM     13  H   LIG d   1       2.741  -5.474  -9.766  0.00  0.00     0.103 H 
ATOM     14  H   LIG d   1       4.845  -1.230  -7.934  0.00  0.00     0.039 H 
ATOM     15  H   LIG d   1       6.215  -2.087  -8.691  0.00  0.00     0.039 H 
ATOM     16  N   LIG d   1       5.036  -2.650  -5.560  0.00  0.00     0.252 N 
ATOM     17  H   LIG d   1       4.247  -2.006  -5.691  0.00  0.00     0.205 HD
ENDROOT
BRANCH   9  18
ATOM     18  C   LIG d   1       6.765  -1.039  -6.134  0.00  0.00     0.276 A 
ATOM     19  O   LIG d   1       6.309   0.200  -6.347  0.00  0.00    -0.332 OA
ATOM     20  N   LIG d   1       7.087   1.012  -5.891  0.00  0.00    -0.056 NA
ATOM     21  C   LIG d   1       8.110   0.402  -5.353  0.00  0.00     0.202 A 
ATOM     22  N   LIG d   1       7.909  -0.925  -5.507  0.00  0.00    -0.186 NA
BRANCH  21  23
ATOM     23  C   LIG d   1       9.276   1.047  -4.698  0.00  0.00     0.025 A 
ATOM     24  C   LIG d   1      10.581   0.664  -5.016  0.00  0.00    -0.033 A 
ATOM     25  C   LIG d   1      11.636   1.290  -4.384  0.00  0.00     0.028 A 
ATOM     26  H   LIG d   1      10.762  -0.113  -5.745  0.00  0.00     0.064 H 
ATOM     27  N   LIG d   1      11.424   2.239  -3.492  0.00  0.00    -0.263 NA
ATOM     28  H   LIG d   1      12.649   1.000  -4.623  0.00  0.00     0.083 H 
ATOM     29  C   LIG d   1      10.208   2.631  -3.165  0.00  0.00     0.028 A 
ATOM     30  C   LIG d   1       9.097   2.060  -3.752  0.00  0.00    -0.033 A 
ATOM     31  H   LIG d   1      10.081   3.412  -2.429  0.00  0.00     0.083 H 
ATOM     32  H   LIG d   1       8.105   2.389  -3.483  0.00  0.00     0.064 H 
ENDBRANCH  21  23
ENDBRANCH   9  18
BRANCH  16  33
ATOM     33  C   LIG d   1       5.561  -2.493  -4.187  0.00  0.00    -0.005 C 
ATOM     34  H   LIG d   1       5.372  -3.390  -3.597  0.00  0.00     0.087 H 
ATOM     35  H   LIG d   1       6.635  -2.314  -4.243  0.00  0.00     0.087 H 
BRANCH  33  36
ATOM     36  C   LIG d   1       4.889  -1.311  -3.536  0.00  0.00    -0.003 A 
ATOM     37  C   LIG d   1       5.636  -0.411  -2.799  0.00  0.00    -0.051 A 
ATOM     38  C   LIG d   1       5.022   0.675  -2.206  0.00  0.00    -0.026 A 
ATOM     39  H   LIG d   1       6.702  -0.553  -2.693  0.00  0.00     0.062 H 
ATOM     40  C   LIG d   1       3.655   0.855  -2.339  0.00  0.00     0.123 A 
ATOM     41  H   LIG d   1       5.606   1.381  -1.634  0.00  0.00     0.065 H 
ATOM     42  C   LIG d   1       2.907  -0.051  -3.072  0.00  0.00    -0.026 A 
ATOM     43  F   LIG d   1       3.053   1.914  -1.754  0.00  0.00    -0.205 F 
ATOM     44  C   LIG d   1       3.525  -1.132  -3.670  0.00  0.00    -0.051 A 
ATOM     45  H   LIG d   1       1.841   0.089  -3.176  0.00  0.00     0.065 H 
ATOM     46  H   LIG d   1       2.941  -1.839  -4.242  0.00  0.00     0.062 H 
ENDBRANCH  33  36
ENDBRANCH  16  33
TORSDOF 4
ENDMDL
MODEL 4
REMARK VINA RESULT:      -7.1      2.196      3.485
REMARK  4 active torsions:
REMARK  status: ('A' for Active; 'I' for Inactive)
REMARK    1  A    between atoms: C_6  and  C_7 
REMARK    2  A    between atoms: C_7  and  N_45 
REMARK    3  A    between atoms: C_16  and  C_18 
REMARK    4  A    between atoms: C_20  and  C_23 
ROOT
ATOM      1  C   LIG d   1       4.465  -1.123  -8.070  0.00  0.00     0.012 C 
ATOM      2  C   LIG d   1       4.265  -0.378  -9.367  0.00  0.00     0.084 A 
ATOM      3  C   LIG d   1       5.086   0.610  -9.788  0.00  0.00     0.073 A 
ATOM      4  N   LIG d   1       4.605   1.049 -10.981  0.00  0.00    -0.240 NA
ATOM      5  H   LIG d   1       2.563  -1.202 -10.233  0.00  0.00     0.167 HD
ATOM      6  C   LIG d   1       3.502   0.314 -11.257  0.00  0.00     0.094 A 
ATOM      7  N   LIG d   1       3.309  -0.538 -10.282  0.00  0.00    -0.344 N 
ATOM      8  C   LIG d   1       6.292   1.077  -9.015  0.00  0.00     0.043 C 
ATOM      9  C   LIG d   1       6.614   0.011  -7.959  0.00  0.00     0.066 C 
ATOM     10  H   LIG d   1       7.015  -0.877  -8.449  0.00  0.00     0.096 H 
ATOM     11  H   LIG d   1       4.891  -2.105  -8.273  0.00  0.00     0.088 H 
ATOM     12  H   LIG d   1       3.509  -1.235  -7.560  0.00  0.00     0.088 H 
ATOM     13  H   LIG d   1       2.884   0.415 -12.137  0.00  0.00     0.103 H 
ATOM     14  H   LIG d   1       6.072   2.026  -8.526  0.00  0.00     0.039 H 
ATOM     15  H   LIG d   1       7.139   1.195  -9.691  0.00  0.00     0.039 H 
ATOM     16  N   LIG d   1       5.375  -0.318  -7.218  0.00  0.00     0.252 N 
ATOM     17  H   LIG d   1       4.901   0.556  -6.959  0.00  0.00     0.205 HD
ENDROOT
BRANCH   9  18
ATOM     18  C   LIG d   1       7.635   0.555  -6.993  0.00  0.00     0.276 A 
ATOM     19  O   LIG d   1       8.669  -0.113  -6.472  0.00  0.00    -0.332 OA
ATOM     20  N   LIG d   1       9.301   0.612  -5.732  0.00  0.00    -0.056 NA
ATOM     21  C   LIG d   1       8.752   1.798  -5.689  0.00  0.00     0.202 A 
ATOM     22  N   LIG d   1       7.673   1.768  -6.502  0.00  0.00    -0.186 NA
BRANCH  21  23
ATOM     23  C   LIG d   1       9.225   2.959  -4.893  0.00  0.00     0.025 A 
ATOM     24  C   LIG d   1       9.486   2.834  -3.526  0.00  0.00    -0.033 A 
ATOM     25  C   LIG d   1       9.925   3.938  -2.824  0.00  0.00     0.028 A 
ATOM     26  H   LIG d   1       9.345   1.888  -3.026  0.00  0.00     0.064 H 
ATOM     27  N   LIG d   1      10.100   5.098  -3.428  0.00  0.00    -0.263 NA
ATOM     28  H   LIG d   1      10.129   3.852  -1.767  0.00  0.00     0.083 H 
ATOM     29  C   LIG d   1       9.866   5.258  -4.716  0.00  0.00     0.028 A 
ATOM     30  C   LIG d   1       9.429   4.204  -5.493  0.00  0.00    -0.033 A 
ATOM     31  H   LIG d   1      10.022   6.227  -5.169  0.00  0.00     0.083 H 
ATOM     32  H   LIG d   1       9.243   4.341  -6.548  0.00  0.00     0.064 H 
ENDBRANCH  21  23
ENDBRANCH   9  18
BRANCH  16  33
ATOM     33  C   LIG d   1       5.707  -1.067  -5.989  0.00  0.00    -0.005 C 
ATOM     34  H   LIG d   1       5.299  -2.077  -6.032  0.00  0.00     0.087 H 
ATOM     35  H   LIG d   1       6.791  -1.118  -5.893  0.00  0.00     0.087 H 
BRANCH  33  36
ATOM     36  C   LIG d   1       5.131  -0.343  -4.800  0.00  0.00    -0.003 A 
ATOM     37  C   LIG d   1       3.765  -0.151  -4.702  0.00  0.00    -0.051 A 
ATOM     38  C   LIG d   1       3.236   0.509  -3.610  0.00  0.00    -0.026 A 
ATOM     39  H   LIG d   1       3.111  -0.524  -5.477  0.00  0.00     0.062 H 
ATOM     40  C   LIG d   1       4.074   0.990  -2.619  0.00  0.00     0.123 A 
ATOM     41  H   LIG d   1       2.168   0.655  -3.532  0.00  0.00     0.065 H 
ATOM     42  C   LIG d   1       5.443   0.803  -2.720  0.00  0.00    -0.026 A 
ATOM     43  F   LIG d   1       3.558   1.641  -1.553  0.00  0.00    -0.205 F 
ATOM     44  C   LIG d   1       5.969   0.137  -3.811  0.00  0.00    -0.051 A 
ATOM     45  H   LIG d   1       6.098   1.178  -1.948  0.00  0.00     0.065 H 
ATOM     46  H   LIG d   1       7.037  -0.009  -3.890  0.00  0.00     0.062 H 
ENDBRANCH  33  36
ENDBRANCH  16  33
TORSDOF 4
ENDMDL
MODEL 5
REMARK VINA RESULT:      -7.1      5.666      7.849
REMARK  4 active torsions:
REMARK  status: ('A' for Active; 'I' for Inactive)
REMARK    1  A    between atoms: C_6  and  C_7 
REMARK    2  A    between atoms: C_7  and  N_45 
REMARK    3  A    between atoms: C_16  and  C_18 
REMARK    4  A    between atoms: C_20  and  C_23 
ROOT
ATOM      1  C   LIG d   1       4.055   0.668 -10.948  0.00  0.00     0.012 C 
ATOM      2  C   LIG d   1       3.217  -0.472 -11.471  0.00  0.00     0.084 A 
ATOM      3  C   LIG d   1       2.392  -1.205 -10.690  0.00  0.00     0.073 A 
ATOM      4  N   LIG d   1       1.805  -2.135 -11.488  0.00  0.00    -0.240 NA
ATOM      5  H   LIG d   1       3.633  -0.590 -13.505  0.00  0.00     0.167 HD
ATOM      6  C   LIG d   1       2.287  -1.943 -12.739  0.00  0.00     0.094 A 
ATOM      7  N   LIG d   1       3.131  -0.943 -12.715  0.00  0.00    -0.344 N 
ATOM      8  C   LIG d   1       2.215  -0.967  -9.212  0.00  0.00     0.043 C 
ATOM      9  C   LIG d   1       2.783   0.423  -8.889  0.00  0.00     0.066 C 
ATOM     10  H   LIG d   1       2.125   1.188  -9.301  0.00  0.00     0.096 H 
ATOM     11  H   LIG d   1       3.598   1.618 -11.224  0.00  0.00     0.088 H 
ATOM     12  H   LIG d   1       5.059   0.607 -11.366  0.00  0.00     0.088 H 
ATOM     13  H   LIG d   1       2.019  -2.520 -13.611  0.00  0.00     0.103 H 
ATOM     14  H   LIG d   1       2.756  -1.727  -8.649  0.00  0.00     0.039 H 
ATOM     15  H   LIG d   1       1.156  -1.001  -8.958  0.00  0.00     0.039 H 
ATOM     16  N   LIG d   1       4.139   0.532  -9.473  0.00  0.00     0.252 N 
ATOM     17  H   LIG d   1       4.668  -0.319  -9.247  0.00  0.00     0.205 HD
ENDROOT
BRANCH   9  18
ATOM     18  C   LIG d   1       2.875   0.591  -7.395  0.00  0.00     0.276 A 
ATOM     19  O   LIG d   1       2.470   1.652  -6.689  0.00  0.00    -0.332 OA
ATOM     20  N   LIG d   1       2.683   1.471  -5.508  0.00  0.00    -0.056 NA
ATOM     21  C   LIG d   1       3.243   0.304  -5.327  0.00  0.00     0.202 A 
ATOM     22  N   LIG d   1       3.371  -0.271  -6.542  0.00  0.00    -0.186 NA
BRANCH  21  23
ATOM     23  C   LIG d   1       3.662  -0.279  -4.027  0.00  0.00     0.025 A 
ATOM     24  C   LIG d   1       4.070   0.540  -2.971  0.00  0.00    -0.033 A 
ATOM     25  C   LIG d   1       4.451  -0.043  -1.779  0.00  0.00     0.028 A 
ATOM     26  H   LIG d   1       4.088   1.614  -3.085  0.00  0.00     0.064 H 
ATOM     27  N   LIG d   1       4.432  -1.353  -1.631  0.00  0.00    -0.263 NA
ATOM     28  H   LIG d   1       4.768   0.582  -0.957  0.00  0.00     0.083 H 
ATOM     29  C   LIG d   1       4.053  -2.161  -2.602  0.00  0.00     0.028 A 
ATOM     30  C   LIG d   1       3.652  -1.661  -3.824  0.00  0.00    -0.033 A 
ATOM     31  H   LIG d   1       4.054  -3.229  -2.437  0.00  0.00     0.083 H 
ATOM     32  H   LIG d   1       3.340  -2.328  -4.614  0.00  0.00     0.064 H 
ENDBRANCH  21  23
ENDBRANCH   9  18
BRANCH  16  33
ATOM     33  C   LIG d   1       4.841   1.699  -8.899  0.00  0.00    -0.005 C 
ATOM     34  H   LIG d   1       4.813   2.542  -9.589  0.00  0.00     0.087 H 
ATOM     35  H   LIG d   1       4.351   1.976  -7.966  0.00  0.00     0.087 H 
BRANCH  33  36
ATOM     36  C   LIG d   1       6.274   1.324  -8.622  0.00  0.00    -0.003 A 
ATOM     37  C   LIG d   1       6.581   0.054  -8.168  0.00  0.00    -0.051 A 
ATOM     38  C   LIG d   1       7.895  -0.292  -7.918  0.00  0.00    -0.026 A 
ATOM     39  H   LIG d   1       5.793  -0.669  -8.015  0.00  0.00     0.062 H 
ATOM     40  C   LIG d   1       8.904   0.636  -8.111  0.00  0.00     0.123 A 
ATOM     41  H   LIG d   1       8.134  -1.285  -7.568  0.00  0.00     0.065 H 
ATOM     42  C   LIG d   1       8.595   1.910  -8.560  0.00  0.00    -0.026 A 
ATOM     43  F   LIG d   1      10.188   0.300  -7.862  0.00  0.00    -0.205 F 
ATOM     44  C   LIG d   1       7.281   2.251  -8.815  0.00  0.00    -0.051 A 
ATOM     45  H   LIG d   1       9.382   2.635  -8.711  0.00  0.00     0.065 H 
ATOM     46  H   LIG d   1       7.040   3.245  -9.165  0.00  0.00     0.062 H 
ENDBRANCH  33  36
ENDBRANCH  16  33
TORSDOF 4
ENDMDL
MODEL 6
REMARK VINA RESULT:      -6.9      6.183     10.115
REMARK  4 active torsions:
REMARK  status: ('A' for Active; 'I' for Inactive)
REMARK    1  A    between atoms: C_6  and  C_7 
REMARK    2  A    between atoms: C_7  and  N_45 
REMARK    3  A    between atoms: C_16  and  C_18 
REMARK    4  A    between atoms: C_20  and  C_23 
ROOT
ATOM      1  C   LIG d   1       4.655  -2.086  -6.271  0.00  0.00     0.012 C 
ATOM      2  C   LIG d   1       3.918  -1.956  -7.580  0.00  0.00     0.084 A 
ATOM      3  C   LIG d   1       3.608  -3.013  -8.365  0.00  0.00     0.073 A 
ATOM      4  N   LIG d   1       2.954  -2.527  -9.453  0.00  0.00    -0.240 NA
ATOM      5  H   LIG d   1       3.547   0.076  -7.819  0.00  0.00     0.167 HD
ATOM      6  C   LIG d   1       2.880  -1.183  -9.301  0.00  0.00     0.094 A 
ATOM      7  N   LIG d   1       3.460  -0.854  -8.175  0.00  0.00    -0.344 N 
ATOM      8  C   LIG d   1       3.962  -4.437  -8.021  0.00  0.00     0.043 C 
ATOM      9  C   LIG d   1       4.330  -4.482  -6.532  0.00  0.00     0.066 C 
ATOM     10  H   LIG d   1       3.431  -4.343  -5.931  0.00  0.00     0.096 H 
ATOM     11  H   LIG d   1       3.953  -1.989  -5.443  0.00  0.00     0.088 H 
ATOM     12  H   LIG d   1       5.417  -1.311  -6.200  0.00  0.00     0.088 H 
ATOM     13  H   LIG d   1       2.418  -0.497  -9.995  0.00  0.00     0.103 H 
ATOM     14  H   LIG d   1       4.812  -4.761  -8.622  0.00  0.00     0.039 H 
ATOM     15  H   LIG d   1       3.106  -5.084  -8.210  0.00  0.00     0.039 H 
ATOM     16  N   LIG d   1       5.316  -3.414  -6.250  0.00  0.00     0.252 N 
ATOM     17  H   LIG d   1       6.044  -3.435  -6.974  0.00  0.00     0.205 HD
ENDROOT
BRANCH   9  18
ATOM     18  C   LIG d   1       4.947  -5.819  -6.209  0.00  0.00     0.276 A 
ATOM     19  O   LIG d   1       5.982  -6.388  -6.836  0.00  0.00    -0.332 OA
ATOM     20  N   LIG d   1       6.234  -7.462  -6.330  0.00  0.00    -0.056 NA
ATOM     21  C   LIG d   1       5.404  -7.702  -5.349  0.00  0.00     0.202 A 
ATOM     22  N   LIG d   1       4.568  -6.644  -5.264  0.00  0.00    -0.186 NA
BRANCH  21  23
ATOM     23  C   LIG d   1       5.383  -8.913  -4.490  0.00  0.00     0.025 A 
ATOM     24  C   LIG d   1       6.553  -9.390  -3.894  0.00  0.00    -0.033 A 
ATOM     25  C   LIG d   1       6.489 -10.519  -3.101  0.00  0.00     0.028 A 
ATOM     26  H   LIG d   1       7.494  -8.885  -4.051  0.00  0.00     0.064 H 
ATOM     27  N   LIG d   1       5.344 -11.143  -2.903  0.00  0.00    -0.263 NA
ATOM     28  H   LIG d   1       7.388 -10.896  -2.637  0.00  0.00     0.083 H 
ATOM     29  C   LIG d   1       4.217 -10.724  -3.447  0.00  0.00     0.028 A 
ATOM     30  C   LIG d   1       4.191  -9.601  -4.249  0.00  0.00    -0.033 A 
ATOM     31  H   LIG d   1       3.301 -11.266  -3.258  0.00  0.00     0.083 H 
ATOM     32  H   LIG d   1       3.265  -9.262  -4.687  0.00  0.00     0.064 H 
ENDBRANCH  21  23
ENDBRANCH   9  18
BRANCH  16  33
ATOM     33  C   LIG d   1       5.944  -3.643  -4.932  0.00  0.00    -0.005 C 
ATOM     34  H   LIG d   1       5.657  -4.616  -4.533  0.00  0.00     0.087 H 
ATOM     35  H   LIG d   1       7.027  -3.605  -5.051  0.00  0.00     0.087 H 
BRANCH  33  36
ATOM     36  C   LIG d   1       5.504  -2.560  -3.982  0.00  0.00    -0.003 A 
ATOM     37  C   LIG d   1       4.330  -2.702  -3.267  0.00  0.00    -0.051 A 
ATOM     38  C   LIG d   1       3.928  -1.711  -2.392  0.00  0.00    -0.026 A 
ATOM     39  H   LIG d   1       3.729  -3.592  -3.387  0.00  0.00     0.062 H 
ATOM     40  C   LIG d   1       4.696  -0.569  -2.241  0.00  0.00     0.123 A 
ATOM     41  H   LIG d   1       3.013  -1.825  -1.830  0.00  0.00     0.065 H 
ATOM     42  C   LIG d   1       5.869  -0.424  -2.963  0.00  0.00    -0.026 A 
ATOM     43  F   LIG d   1       4.301   0.403  -1.390  0.00  0.00    -0.205 F 
ATOM     44  C   LIG d   1       6.271  -1.420  -3.832  0.00  0.00    -0.051 A 
ATOM     45  H   LIG d   1       6.468   0.467  -2.846  0.00  0.00     0.065 H 
ATOM     46  H   LIG d   1       7.186  -1.307  -4.395  0.00  0.00     0.062 H 
ENDBRANCH  33  36
ENDBRANCH  16  33
TORSDOF 4
ENDMDL
MODEL 7
REMARK VINA RESULT:      -6.7      3.296      7.366
REMARK  4 active torsions:
REMARK  status: ('A' for Active; 'I' for Inactive)
REMARK    1  A    between atoms: C_6  and  C_7 
REMARK    2  A    between atoms: C_7  and  N_45 
REMARK    3  A    between atoms: C_16  and  C_18 
REMARK    4  A    between atoms: C_20  and  C_23 
ROOT
ATOM      1  C   LIG d   1      12.329   3.957  -4.177  0.00  0.00     0.012 C 
ATOM      2  C   LIG d   1      13.350   2.849  -4.099  0.00  0.00     0.084 A 
ATOM      3  C   LIG d   1      13.029   1.538  -4.181  0.00  0.00     0.073 A 
ATOM      4  N   LIG d   1      14.186   0.834  -4.071  0.00  0.00    -0.240 NA
ATOM      5  H   LIG d   1      15.188   3.792  -3.856  0.00  0.00     0.167 HD
ATOM      6  C   LIG d   1      15.185   1.737  -3.926  0.00  0.00     0.094 A 
ATOM      7  N   LIG d   1      14.671   2.940  -3.944  0.00  0.00    -0.344 N 
ATOM      8  C   LIG d   1      11.620   1.036  -4.363  0.00  0.00     0.043 C 
ATOM      9  C   LIG d   1      10.756   2.219  -4.823  0.00  0.00     0.066 C 
ATOM     10  H   LIG d   1      11.014   2.480  -5.849  0.00  0.00     0.096 H 
ATOM     11  H   LIG d   1      12.364   4.419  -5.163  0.00  0.00     0.088 H 
ATOM     12  H   LIG d   1      12.539   4.705  -3.413  0.00  0.00     0.088 H 
ATOM     13  H   LIG d   1      16.233   1.501  -3.813  0.00  0.00     0.103 H 
ATOM     14  H   LIG d   1      11.241   0.648  -3.417  0.00  0.00     0.039 H 
ATOM     15  H   LIG d   1      11.604   0.251  -5.118  0.00  0.00     0.039 H 
ATOM     16  N   LIG d   1      10.994   3.365  -3.917  0.00  0.00     0.252 N 
ATOM     17  H   LIG d   1      10.960   3.034  -2.946  0.00  0.00     0.205 HD
ENDROOT
BRANCH   9  18
ATOM     18  C   LIG d   1       9.301   1.832  -4.756  0.00  0.00     0.276 A 
ATOM     19  O   LIG d   1       8.386   2.012  -5.714  0.00  0.00    -0.332 OA
ATOM     20  N   LIG d   1       7.310   1.589  -5.347  0.00  0.00    -0.056 NA
ATOM     21  C   LIG d   1       7.408   1.107  -4.135  0.00  0.00     0.202 A 
ATOM     22  N   LIG d   1       8.692   1.260  -3.746  0.00  0.00    -0.186 NA
BRANCH  21  23
ATOM     23  C   LIG d   1       6.311   0.504  -3.336  0.00  0.00     0.025 A 
ATOM     24  C   LIG d   1       6.150  -0.882  -3.268  0.00  0.00    -0.033 A 
ATOM     25  C   LIG d   1       5.118  -1.401  -2.513  0.00  0.00     0.028 A 
ATOM     26  H   LIG d   1       6.824  -1.539  -3.799  0.00  0.00     0.064 H 
ATOM     27  N   LIG d   1       4.291  -0.606  -1.861  0.00  0.00    -0.263 NA
ATOM     28  H   LIG d   1       4.985  -2.471  -2.454  0.00  0.00     0.083 H 
ATOM     29  C   LIG d   1       4.408   0.707  -1.899  0.00  0.00     0.028 A 
ATOM     30  C   LIG d   1       5.415   1.308  -2.626  0.00  0.00    -0.033 A 
ATOM     31  H   LIG d   1       3.707   1.320  -1.350  0.00  0.00     0.083 H 
ATOM     32  H   LIG d   1       5.508   2.383  -2.649  0.00  0.00     0.064 H 
ENDBRANCH  21  23
ENDBRANCH   9  18
BRANCH  16  33
ATOM     33  C   LIG d   1       9.944   4.387  -4.112  0.00  0.00    -0.005 C 
ATOM     34  H   LIG d   1      10.083   4.905  -5.061  0.00  0.00     0.087 H 
ATOM     35  H   LIG d   1       8.972   3.894  -4.106  0.00  0.00     0.087 H 
BRANCH  33  36
ATOM     36  C   LIG d   1      10.010   5.382  -2.982  0.00  0.00    -0.003 A 
ATOM     37  C   LIG d   1      10.499   4.995  -1.748  0.00  0.00    -0.051 A 
ATOM     38  C   LIG d   1      10.563   5.907  -0.713  0.00  0.00    -0.026 A 
ATOM     39  H   LIG d   1      10.836   3.980  -1.596  0.00  0.00     0.062 H 
ATOM     40  C   LIG d   1      10.128   7.207  -0.908  0.00  0.00     0.123 A 
ATOM     41  H   LIG d   1      10.950   5.606   0.249  0.00  0.00     0.065 H 
ATOM     42  C   LIG d   1       9.632   7.592  -2.142  0.00  0.00    -0.026 A 
ATOM     43  F   LIG d   1      10.185   8.099   0.105  0.00  0.00    -0.205 F 
ATOM     44  C   LIG d   1       9.574   6.679  -3.178  0.00  0.00    -0.051 A 
ATOM     45  H   LIG d   1       9.291   8.606  -2.295  0.00  0.00     0.065 H 
ATOM     46  H   LIG d   1       9.187   6.979  -4.141  0.00  0.00     0.062 H 
ENDBRANCH  33  36
ENDBRANCH  16  33
TORSDOF 4
ENDMDL
MODEL 8
REMARK VINA RESULT:      -6.6      5.560      7.279
REMARK  4 active torsions:
REMARK  status: ('A' for Active; 'I' for Inactive)
REMARK    1  A    between atoms: C_6  and  C_7 
REMARK    2  A    between atoms: C_7  and  N_45 
REMARK    3  A    between atoms: C_16  and  C_18 
REMARK    4  A    between atoms: C_20  and  C_23 
ROOT
ATOM      1  C   LIG d   1       4.056  -0.922  -7.282  0.00  0.00     0.012 C 
ATOM      2  C   LIG d   1       4.746  -0.446  -8.536  0.00  0.00     0.084 A 
ATOM      3  C   LIG d   1       5.859  -1.030  -9.036  0.00  0.00     0.073 A 
ATOM      4  N   LIG d   1       6.201  -0.344 -10.159  0.00  0.00    -0.240 NA
ATOM      5  H   LIG d   1       3.635   1.177  -9.209  0.00  0.00     0.167 HD
ATOM      6  C   LIG d   1       5.284   0.640 -10.314  0.00  0.00     0.094 A 
ATOM      7  N   LIG d   1       4.418   0.568  -9.336  0.00  0.00    -0.344 N 
ATOM      8  C   LIG d   1       6.532  -2.220  -8.402  0.00  0.00     0.043 C 
ATOM      9  C   LIG d   1       5.544  -2.842  -7.405  0.00  0.00     0.066 C 
ATOM     10  H   LIG d   1       4.737  -3.330  -7.951  0.00  0.00     0.096 H 
ATOM     11  H   LIG d   1       3.160  -1.485  -7.547  0.00  0.00     0.088 H 
ATOM     12  H   LIG d   1       3.783  -0.067  -6.665  0.00  0.00     0.088 H 
ATOM     13  H   LIG d   1       5.271   1.365 -11.114  0.00  0.00     0.103 H 
ATOM     14  H   LIG d   1       7.432  -1.898  -7.878  0.00  0.00     0.039 H 
ATOM     15  H   LIG d   1       6.791  -2.948  -9.170  0.00  0.00     0.039 H 
ATOM     16  N   LIG d   1       5.011  -1.774  -6.531  0.00  0.00     0.252 N 
ATOM     17  H   LIG d   1       5.791  -1.190  -6.205  0.00  0.00     0.205 HD
ENDROOT
BRANCH   9  18
ATOM     18  C   LIG d   1       6.263  -3.860  -6.557  0.00  0.00     0.276 A 
ATOM     19  O   LIG d   1       5.998  -5.169  -6.493  0.00  0.00    -0.332 OA
ATOM     20  N   LIG d   1       6.760  -5.709  -5.719  0.00  0.00    -0.056 NA
ATOM     21  C   LIG d   1       7.576  -4.827  -5.203  0.00  0.00     0.202 A 
ATOM     22  N   LIG d   1       7.261  -3.629  -5.741  0.00  0.00    -0.186 NA
BRANCH  21  23
ATOM     23  C   LIG d   1       8.648  -5.094  -4.211  0.00  0.00     0.025 A 
ATOM     24  C   LIG d   1       9.156  -4.069  -3.410  0.00  0.00    -0.033 A 
ATOM     25  C   LIG d   1      10.152  -4.360  -2.500  0.00  0.00     0.028 A 
ATOM     26  H   LIG d   1       8.777  -3.062  -3.503  0.00  0.00     0.064 H 
ATOM     27  N   LIG d   1      10.622  -5.586  -2.380  0.00  0.00    -0.263 NA
ATOM     28  H   LIG d   1      10.552  -3.573  -1.877  0.00  0.00     0.083 H 
ATOM     29  C   LIG d   1      10.169  -6.583  -3.117  0.00  0.00     0.028 A 
ATOM     30  C   LIG d   1       9.171  -6.380  -4.048  0.00  0.00    -0.033 A 
ATOM     31  H   LIG d   1      10.583  -7.572  -2.986  0.00  0.00     0.083 H 
ATOM     32  H   LIG d   1       8.802  -7.201  -4.644  0.00  0.00     0.064 H 
ENDBRANCH  21  23
ENDBRANCH   9  18
BRANCH  16  33
ATOM     33  C   LIG d   1       4.338  -2.372  -5.358  0.00  0.00    -0.005 C 
ATOM     34  H   LIG d   1       3.293  -2.586  -5.583  0.00  0.00     0.087 H 
ATOM     35  H   LIG d   1       4.850  -3.298  -5.097  0.00  0.00     0.087 H 
BRANCH  33  36
ATOM     36  C   LIG d   1       4.418  -1.410  -4.201  0.00  0.00    -0.003 A 
ATOM     37  C   LIG d   1       3.263  -1.003  -3.560  0.00  0.00    -0.051 A 
ATOM     38  C   LIG d   1       3.335  -0.125  -2.496  0.00  0.00    -0.026 A 
ATOM     39  H   LIG d   1       2.303  -1.377  -3.887  0.00  0.00     0.062 H 
ATOM     40  C   LIG d   1       4.565   0.357  -2.079  0.00  0.00     0.123 A 
ATOM     41  H   LIG d   1       2.433   0.189  -1.992  0.00  0.00     0.065 H 
ATOM     42  C   LIG d   1       5.721  -0.046  -2.726  0.00  0.00    -0.026 A 
ATOM     43  F   LIG d   1       4.636   1.220  -1.042  0.00  0.00    -0.205 F 
ATOM     44  C   LIG d   1       5.645  -0.929  -3.786  0.00  0.00    -0.051 A 
ATOM     45  H   LIG d   1       6.680   0.330  -2.402  0.00  0.00     0.065 H 
ATOM     46  H   LIG d   1       6.548  -1.244  -4.291  0.00  0.00     0.062 H 
ENDBRANCH  33  36
ENDBRANCH  16  33
TORSDOF 4
ENDMDL
MODEL 9
REMARK VINA RESULT:      -6.5      3.567      7.284
REMARK  4 active torsions:
REMARK  status: ('A' for Active; 'I' for Inactive)
REMARK    1  A    between atoms: C_6  and  C_7 
REMARK    2  A    between atoms: C_7  and  N_45 
REMARK    3  A    between atoms: C_16  and  C_18 
REMARK    4  A    between atoms: C_20  and  C_23 
ROOT
ATOM      1  C   LIG d   1       9.692   1.053  -4.187  0.00  0.00     0.012 C 
ATOM      2  C   LIG d   1      10.884   0.346  -4.782  0.00  0.00     0.084 A 
ATOM      3  C   LIG d   1      10.877  -0.208  -6.015  0.00  0.00     0.073 A 
ATOM      4  N   LIG d   1      12.106  -0.753  -6.217  0.00  0.00    -0.240 NA
ATOM      5  H   LIG d   1      12.378   0.449  -3.340  0.00  0.00     0.167 HD
ATOM      6  C   LIG d   1      12.832  -0.515  -5.098  0.00  0.00     0.094 A 
ATOM      7  N   LIG d   1      12.088   0.145  -4.247  0.00  0.00    -0.344 N 
ATOM      8  C   LIG d   1       9.683  -0.181  -6.934  0.00  0.00     0.043 C 
ATOM      9  C   LIG d   1       8.707   0.880  -6.404  0.00  0.00     0.066 C 
ATOM     10  H   LIG d   1       9.122   1.873  -6.576  0.00  0.00     0.096 H 
ATOM     11  H   LIG d   1       9.841   2.132  -4.238  0.00  0.00     0.088 H 
ATOM     12  H   LIG d   1       9.565   0.749  -3.148  0.00  0.00     0.088 H 
ATOM     13  H   LIG d   1      13.854  -0.819  -4.937  0.00  0.00     0.103 H 
ATOM     14  H   LIG d   1       9.199  -1.157  -6.939  0.00  0.00     0.039 H 
ATOM     15  H   LIG d   1      10.001   0.081  -7.943  0.00  0.00     0.039 H 
ATOM     16  N   LIG d   1       8.491   0.649  -4.958  0.00  0.00     0.252 N 
ATOM     17  H   LIG d   1       8.317  -0.351  -4.803  0.00  0.00     0.205 HD
ENDROOT
BRANCH   9  18
ATOM     18  C   LIG d   1       7.390   0.754  -7.126  0.00  0.00     0.276 A 
ATOM     19  O   LIG d   1       6.690   1.749  -7.679  0.00  0.00    -0.332 OA
ATOM     20  N   LIG d   1       5.677   1.313  -8.184  0.00  0.00    -0.056 NA
ATOM     21  C   LIG d   1       5.608   0.020  -8.009  0.00  0.00     0.202 A 
ATOM     22  N   LIG d   1       6.713  -0.350  -7.325  0.00  0.00    -0.186 NA
BRANCH  21  23
ATOM     23  C   LIG d   1       4.519  -0.876  -8.473  0.00  0.00     0.025 A 
ATOM     24  C   LIG d   1       3.392  -0.360  -9.118  0.00  0.00    -0.033 A 
ATOM     25  C   LIG d   1       2.402  -1.228  -9.535  0.00  0.00     0.028 A 
ATOM     26  H   LIG d   1       3.295   0.702  -9.286  0.00  0.00     0.064 H 
ATOM     27  N   LIG d   1       2.512  -2.527  -9.332  0.00  0.00    -0.263 NA
ATOM     28  H   LIG d   1       1.527  -0.838 -10.033  0.00  0.00     0.083 H 
ATOM     29  C   LIG d   1       3.560  -3.054  -8.729  0.00  0.00     0.028 A 
ATOM     30  C   LIG d   1       4.597  -2.258  -8.285  0.00  0.00    -0.033 A 
ATOM     31  H   LIG d   1       3.608  -4.123  -8.584  0.00  0.00     0.083 H 
ATOM     32  H   LIG d   1       5.453  -2.696  -7.796  0.00  0.00     0.064 H 
ENDBRANCH  21  23
ENDBRANCH   9  18
BRANCH  16  33
ATOM     33  C   LIG d   1       7.315   1.417  -4.497  0.00  0.00    -0.005 C 
ATOM     34  H   LIG d   1       7.624   2.261  -3.881  0.00  0.00     0.087 H 
ATOM     35  H   LIG d   1       6.773   1.783  -5.369  0.00  0.00     0.087 H 
BRANCH  33  36
ATOM     36  C   LIG d   1       6.419   0.509  -3.694  0.00  0.00    -0.003 A 
ATOM     37  C   LIG d   1       6.532  -0.862  -3.821  0.00  0.00    -0.051 A 
ATOM     38  C   LIG d   1       5.714  -1.695  -3.082  0.00  0.00    -0.026 A 
ATOM     39  H   LIG d   1       7.265  -1.284  -4.493  0.00  0.00     0.062 H 
ATOM     40  C   LIG d   1       4.772  -1.155  -2.222  0.00  0.00     0.123 A 
ATOM     41  H   LIG d   1       5.806  -2.767  -3.177  0.00  0.00     0.065 H 
ATOM     42  C   LIG d   1       4.655   0.219  -2.101  0.00  0.00    -0.026 A 
ATOM     43  F   LIG d   1       3.968  -1.969  -1.503  0.00  0.00    -0.205 F 
ATOM     44  C   LIG d   1       5.478   1.050  -2.837  0.00  0.00    -0.051 A 
ATOM     45  H   LIG d   1       3.920   0.641  -1.431  0.00  0.00     0.065 H 
ATOM     46  H   LIG d   1       5.387   2.122  -2.742  0.00  0.00     0.062 H 
ENDBRANCH  33  36
ENDBRANCH  16  33
TORSDOF 4
ENDMDL
MODEL 10
REMARK VINA RESULT:      -6.5      3.384      6.993
REMARK  4 active torsions:
REMARK  status: ('A' for Active; 'I' for Inactive)
REMARK    1  A    between atoms: C_6  and  C_7 
REMARK    2  A    between atoms: C_7  and  N_45 
REMARK    3  A    between atoms: C_16  and  C_18 
REMARK    4  A    between atoms: C_20  and  C_23 
ROOT
ATOM      1  C   LIG d   1      12.153   3.100  -5.735  0.00  0.00     0.012 C 
ATOM      2  C   LIG d   1      13.135   1.972  -5.534  0.00  0.00     0.084 A 
ATOM      3  C   LIG d   1      12.759   0.695  -5.299  0.00  0.00     0.073 A 
ATOM      4  N   LIG d   1      13.894  -0.040  -5.169  0.00  0.00    -0.240 NA
ATOM      5  H   LIG d   1      15.021   2.831  -5.702  0.00  0.00     0.167 HD
ATOM      6  C   LIG d   1      14.935   0.810  -5.331  0.00  0.00     0.094 A 
ATOM      7  N   LIG d   1      14.467   2.013  -5.549  0.00  0.00    -0.344 N 
ATOM      8  C   LIG d   1      11.320   0.253  -5.214  0.00  0.00     0.043 C 
ATOM      9  C   LIG d   1      10.451   1.365  -5.818  0.00  0.00     0.066 C 
ATOM     10  H   LIG d   1      10.594   1.391  -6.898  0.00  0.00     0.096 H 
ATOM     11  H   LIG d   1      12.085   3.344  -6.795  0.00  0.00     0.088 H 
ATOM     12  H   LIG d   1      12.480   3.976  -5.176  0.00  0.00     0.088 H 
ATOM     13  H   LIG d   1      15.980   0.540  -5.286  0.00  0.00     0.103 H 
ATOM     14  H   LIG d   1      11.045   0.094  -4.171  0.00  0.00     0.039 H 
ATOM     15  H   LIG d   1      11.185  -0.670  -5.778  0.00  0.00     0.039 H 
ATOM     16  N   LIG d   1      10.838   2.657  -5.210  0.00  0.00     0.252 N 
ATOM     17  H   LIG d   1      10.909   2.538  -4.192  0.00  0.00     0.205 HD
ENDROOT
BRANCH   9  18
ATOM     18  C   LIG d   1       9.001   1.090  -5.511  0.00  0.00     0.276 A 
ATOM     19  O   LIG d   1       7.974   1.207  -6.358  0.00  0.00    -0.332 OA
ATOM     20  N   LIG d   1       6.939   0.909  -5.800  0.00  0.00    -0.056 NA
ATOM     21  C   LIG d   1       7.178   0.581  -4.557  0.00  0.00     0.202 A 
ATOM     22  N   LIG d   1       8.510   0.696  -4.362  0.00  0.00    -0.186 NA
BRANCH  21  23
ATOM     23  C   LIG d   1       6.172   0.162  -3.547  0.00  0.00     0.025 A 
ATOM     24  C   LIG d   1       5.496   1.108  -2.773  0.00  0.00    -0.033 A 
ATOM     25  C   LIG d   1       4.568   0.676  -1.847  0.00  0.00     0.028 A 
ATOM     26  H   LIG d   1       5.697   2.162  -2.896  0.00  0.00     0.064 H 
ATOM     27  N   LIG d   1       4.317  -0.609  -1.689  0.00  0.00    -0.263 NA
ATOM     28  H   LIG d   1       4.041   1.400  -1.243  0.00  0.00     0.083 H 
ATOM     29  C   LIG d   1       4.932  -1.534  -2.401  0.00  0.00     0.028 A 
ATOM     30  C   LIG d   1       5.871  -1.188  -3.352  0.00  0.00    -0.033 A 
ATOM     31  H   LIG d   1       4.696  -2.576  -2.239  0.00  0.00     0.083 H 
ATOM     32  H   LIG d   1       6.368  -1.950  -3.934  0.00  0.00     0.064 H 
ENDBRANCH  21  23
ENDBRANCH   9  18
BRANCH  16  33
ATOM     33  C   LIG d   1       9.810   3.679  -5.502  0.00  0.00    -0.005 C 
ATOM     34  H   LIG d   1      10.028   4.186  -6.442  0.00  0.00     0.087 H 
ATOM     35  H   LIG d   1       8.840   3.187  -5.572  0.00  0.00     0.087 H 
BRANCH  33  36
ATOM     36  C   LIG d   1       9.783   4.685  -4.381  0.00  0.00    -0.003 A 
ATOM     37  C   LIG d   1       9.535   6.017  -4.654  0.00  0.00    -0.051 A 
ATOM     38  C   LIG d   1       9.506   6.940  -3.626  0.00  0.00    -0.026 A 
ATOM     39  H   LIG d   1       9.356   6.336  -5.671  0.00  0.00     0.062 H 
ATOM     40  C   LIG d   1       9.738   6.532  -2.323  0.00  0.00     0.123 A 
ATOM     41  H   LIG d   1       9.307   7.980  -3.839  0.00  0.00     0.065 H 
ATOM     42  C   LIG d   1       9.993   5.199  -2.052  0.00  0.00    -0.026 A 
ATOM     43  F   LIG d   1       9.715   7.435  -1.318  0.00  0.00    -0.205 F 
ATOM     44  C   LIG d   1      10.015   4.277  -3.081  0.00  0.00    -0.051 A 
ATOM     45  H   LIG d   1      10.175   4.880  -1.036  0.00  0.00     0.065 H 
ATOM     46  H   LIG d   1      10.215   3.236  -2.869  0.00  0.00     0.062 H 
ENDBRANCH  33  36
ENDBRANCH  16  33
TORSDOF 4
ENDMDL
