MODEL 1
REMARK VINA RESULT:      -7.3      0.000      0.000
REMARK  6 active torsions:
REMARK  status: ('A' for Active; 'I' for Inactive)
REMARK    1  A    between atoms: C_3  and  C_6 
REMARK    2  A    between atoms: C_6  and  N_7 
REMARK    3  A    between atoms: C_16  and  C_18 
REMARK    4  A    between atoms: C_20  and  C_23 
REMARK    5  A    between atoms: C_26  and  O_29 
REMARK    6  A    between atoms: O_29  and  C_30 
ROOT
ATOM      1  N   LIG d   1       5.334  -0.010  -6.549  0.00  0.00     0.252 N 
ATOM      2  C   LIG d   1       4.362  -0.723  -7.392  0.00  0.00     0.014 C 
ATOM      3  C   LIG d   1       4.241   0.009  -8.705  0.00  0.00     0.106 A 
ATOM      4  C   LIG d   1       5.155   0.904  -9.140  0.00  0.00     0.050 A 
ATOM      5  N   LIG d   1       4.727   1.365 -10.344  0.00  0.00    -0.348 N 
ATOM      6  C   LIG d   1       3.560   0.734 -10.614  0.00  0.00     0.094 A 
ATOM      7  N   LIG d   1       3.279  -0.075  -9.625  0.00  0.00    -0.235 NA
ATOM      8  H   LIG d   1       5.173   2.020 -10.903  0.00  0.00     0.167 HD
ATOM      9  C   LIG d   1       6.396   1.262  -8.362  0.00  0.00     0.042 C 
ATOM     10  C   LIG d   1       6.592   0.190  -7.280  0.00  0.00     0.065 C 
ATOM     11  H   LIG d   1       6.893  -0.748  -7.748  0.00  0.00     0.096 H 
ATOM     12  H   LIG d   1       4.709  -1.741  -7.571  0.00  0.00     0.088 H 
ATOM     13  H   LIG d   1       3.393  -0.749  -6.893  0.00  0.00     0.088 H 
ATOM     14  H   LIG d   1       2.959   0.876 -11.500  0.00  0.00     0.103 H 
ATOM     15  H   LIG d   1       7.259   1.277  -9.028  0.00  0.00     0.039 H 
ATOM     16  H   LIG d   1       6.272   2.239  -7.896  0.00  0.00     0.039 H 
ATOM     17  H   LIG d   1       4.953   0.888  -6.289  0.00  0.00     0.205 HD
ENDROOT
BRANCH  10  18
ATOM     18  C   LIG d   1       7.664   0.636  -6.321  0.00  0.00     0.276 A 
ATOM     19  O   LIG d   1       8.597  -0.150  -5.769  0.00  0.00    -0.332 OA
ATOM     20  N   LIG d   1       9.390   0.688  -4.940  0.00  0.00    -0.056 NA
ATOM     21  C   LIG d   1       8.886   1.894  -5.043  0.00  0.00     0.202 A 
ATOM     22  N   LIG d   1       7.837   1.852  -5.884  0.00  0.00    -0.186 NA
BRANCH  21  23
ATOM     23  C   LIG d   1       9.389   3.104  -4.346  0.00  0.00     0.023 A 
ATOM     24  C   LIG d   1      10.028   2.986  -3.113  0.00  0.00    -0.048 A 
ATOM     25  C   LIG d   1      10.499   4.111  -2.472  0.00  0.00    -0.019 A 
ATOM     26  H   LIG d   1      10.157   2.012  -2.663  0.00  0.00     0.063 H 
ATOM     27  C   LIG d   1      10.328   5.363  -3.047  0.00  0.00     0.130 A 
ATOM     28  H   LIG d   1      10.999   4.019  -1.519  0.00  0.00     0.065 H 
ATOM     29  C   LIG d   1       9.687   5.485  -4.272  0.00  0.00    -0.019 A 
ATOM     30  C   LIG d   1       9.218   4.362  -4.922  0.00  0.00    -0.048 A 
ATOM     31  H   LIG d   1       9.554   6.460  -4.718  0.00  0.00     0.065 H 
ATOM     32  H   LIG d   1       8.720   4.457  -5.875  0.00  0.00     0.063 H 
BRANCH  27  33
ATOM     33  O   LIG d   1      10.789   6.470  -2.410  0.00  0.00    -0.406 OA
BRANCH  33  34
ATOM     34  C   LIG d   1      10.029   6.941  -1.295  0.00  0.00     0.575 C 
ATOM     35  F   LIG d   1      10.471   8.218  -0.935  0.00  0.00    -0.133 F 
ATOM     36  F   LIG d   1       8.675   6.995  -1.642  0.00  0.00    -0.133 F 
ATOM     37  F   LIG d   1      10.199   6.067  -0.214  0.00  0.00    -0.133 F 
ENDBRANCH  33  34
ENDBRANCH  27  33
ENDBRANCH  21  23
ENDBRANCH  10  18
BRANCH   1  38
ATOM     38  C   LIG d   1       5.596  -0.796  -5.336  0.00  0.00     0.002 C 
ATOM     39  H   LIG d   1       6.672  -0.924  -5.211  0.00  0.00     0.087 H 
ATOM     40  H   LIG d   1       5.123  -1.774  -5.427  0.00  0.00     0.087 H 
BRANCH  38  41
ATOM     41  C   LIG d   1       5.033  -0.075  -4.139  0.00  0.00     0.034 A 
ATOM     42  C   LIG d   1       5.685   0.451  -3.073  0.00  0.00    -0.046 A 
ATOM     43  C   LIG d   1       4.953   1.075  -2.081  0.00  0.00    -0.054 A 
ATOM     44  H   LIG d   1       6.761   0.383  -3.002  0.00  0.00     0.063 H 
ATOM     45  C   LIG d   1       3.605   1.143  -2.201  0.00  0.00    -0.024 A 
ATOM     46  H   LIG d   1       5.449   1.498  -1.219  0.00  0.00     0.062 H 
ATOM     47  S   LIG d   1       3.332   0.308  -3.756  0.00  0.00    -0.096 SA
ATOM     48  H   LIG d   1       2.883   1.587  -1.531  0.00  0.00     0.069 H 
ENDBRANCH  38  41
ENDBRANCH   1  38
TORSDOF 6
ENDMDL
MODEL 2
REMARK VINA RESULT:      -7.2      1.941      2.763
REMARK  6 active torsions:
REMARK  status: ('A' for Active; 'I' for Inactive)
REMARK    1  A    between atoms: C_3  and  C_6 
REMARK    2  A    between atoms: C_6  and  N_7 
REMARK    3  A    between atoms: C_16  and  C_18 
REMARK    4  A    between atoms: C_20  and  C_23 
REMARK    5  A    between atoms: C_26  and  O_29 
REMARK    6  A    between atoms: O_29  and  C_30 
ROOT
ATOM      1  N   LIG d   1       7.308   1.063  -5.154  0.00  0.00     0.252 N 
ATOM      2  C   LIG d   1       6.718   0.048  -6.041  0.00  0.00     0.014 C 
ATOM      3  C   LIG d   1       6.806   0.546  -7.461  0.00  0.00     0.106 A 
ATOM      4  C   LIG d   1       7.631   1.546  -7.845  0.00  0.00     0.050 A 
ATOM      5  N   LIG d   1       7.447   1.731  -9.178  0.00  0.00    -0.348 N 
ATOM      6  C   LIG d   1       6.513   0.835  -9.575  0.00  0.00     0.094 A 
ATOM      7  N   LIG d   1       6.137   0.131  -8.538  0.00  0.00    -0.235 NA
ATOM      8  H   LIG d   1       7.899   2.381  -9.738  0.00  0.00     0.167 HD
ATOM      9  C   LIG d   1       8.554   2.265  -6.895  0.00  0.00     0.042 C 
ATOM     10  C   LIG d   1       8.655   1.422  -5.615  0.00  0.00     0.065 C 
ATOM     11  H   LIG d   1       9.222   0.514  -5.823  0.00  0.00     0.096 H 
ATOM     12  H   LIG d   1       7.270  -0.887  -5.946  0.00  0.00     0.088 H 
ATOM     13  H   LIG d   1       5.674  -0.114  -5.770  0.00  0.00     0.088 H 
ATOM     14  H   LIG d   1       6.140   0.720 -10.581  0.00  0.00     0.103 H 
ATOM     15  H   LIG d   1       9.541   2.371  -7.347  0.00  0.00     0.039 H 
ATOM     16  H   LIG d   1       8.149   3.249  -6.659  0.00  0.00     0.039 H 
ATOM     17  H   LIG d   1       6.723   1.886  -5.156  0.00  0.00     0.205 HD
ENDROOT
BRANCH  10  18
ATOM     18  C   LIG d   1       9.357   2.217  -4.545  0.00  0.00     0.276 A 
ATOM     19  O   LIG d   1      10.258   1.737  -3.679  0.00  0.00    -0.332 OA
ATOM     20  N   LIG d   1      10.652   2.831  -2.862  0.00  0.00    -0.056 NA
ATOM     21  C   LIG d   1       9.969   3.869  -3.280  0.00  0.00     0.202 A 
ATOM     22  N   LIG d   1       9.184   3.485  -4.303  0.00  0.00    -0.186 NA
BRANCH  21  23
ATOM     23  C   LIG d   1      10.049   5.240  -2.717  0.00  0.00     0.023 A 
ATOM     24  C   LIG d   1      10.409   5.428  -1.383  0.00  0.00    -0.048 A 
ATOM     25  C   LIG d   1      10.488   6.703  -0.865  0.00  0.00    -0.019 A 
ATOM     26  H   LIG d   1      10.630   4.575  -0.758  0.00  0.00     0.063 H 
ATOM     27  C   LIG d   1      10.197   7.799  -1.667  0.00  0.00     0.130 A 
ATOM     28  H   LIG d   1      10.772   6.849   0.167  0.00  0.00     0.065 H 
ATOM     29  C   LIG d   1       9.833   7.614  -2.994  0.00  0.00    -0.019 A 
ATOM     30  C   LIG d   1       9.758   6.342  -3.519  0.00  0.00    -0.048 A 
ATOM     31  H   LIG d   1       9.608   8.469  -3.616  0.00  0.00     0.065 H 
ATOM     32  H   LIG d   1       9.475   6.199  -4.552  0.00  0.00     0.063 H 
BRANCH  27  33
ATOM     33  O   LIG d   1      10.271   9.053  -1.152  0.00  0.00    -0.406 OA
BRANCH  33  34
ATOM     34  C   LIG d   1       9.037   9.691  -0.817  0.00  0.00     0.575 C 
ATOM     35  F   LIG d   1       9.195  10.422   0.365  0.00  0.00    -0.133 F 
ATOM     36  F   LIG d   1       8.661  10.553  -1.853  0.00  0.00    -0.133 F 
ATOM     37  F   LIG d   1       8.044   8.720  -0.636  0.00  0.00    -0.133 F 
ENDBRANCH  33  34
ENDBRANCH  27  33
ENDBRANCH  21  23
ENDBRANCH  10  18
BRANCH   1  38
ATOM     38  C   LIG d   1       7.388   0.529  -3.788  0.00  0.00     0.002 C 
ATOM     39  H   LIG d   1       7.955   1.217  -3.161  0.00  0.00     0.087 H 
ATOM     40  H   LIG d   1       7.887  -0.441  -3.806  0.00  0.00     0.087 H 
BRANCH  38  41
ATOM     41  C   LIG d   1       5.998   0.368  -3.229  0.00  0.00     0.034 A 
ATOM     42  C   LIG d   1       5.159   1.314  -2.739  0.00  0.00    -0.046 A 
ATOM     43  C   LIG d   1       3.915   0.931  -2.274  0.00  0.00    -0.054 A 
ATOM     44  H   LIG d   1       5.459   2.351  -2.714  0.00  0.00     0.063 H 
ATOM     45  C   LIG d   1       3.570  -0.379  -2.321  0.00  0.00    -0.024 A 
ATOM     46  H   LIG d   1       3.231   1.665  -1.874  0.00  0.00     0.062 H 
ATOM     47  S   LIG d   1       5.028  -1.118  -3.040  0.00  0.00    -0.096 SA
ATOM     48  H   LIG d   1       2.652  -0.853  -2.005  0.00  0.00     0.069 H 
ENDBRANCH  38  41
ENDBRANCH   1  38
TORSDOF 6
ENDMDL
MODEL 3
REMARK VINA RESULT:      -6.9      6.718      8.741
REMARK  6 active torsions:
REMARK  status: ('A' for Active; 'I' for Inactive)
REMARK    1  A    between atoms: C_3  and  C_6 
REMARK    2  A    between atoms: C_6  and  N_7 
REMARK    3  A    between atoms: C_16  and  C_18 
REMARK    4  A    between atoms: C_20  and  C_23 
REMARK    5  A    between atoms: C_26  and  O_29 
REMARK    6  A    between atoms: O_29  and  C_30 
ROOT
ATOM      1  N   LIG d   1       7.242  -7.788  -4.897  0.00  0.00     0.252 N 
ATOM      2  C   LIG d   1       7.510  -9.233  -4.830  0.00  0.00     0.014 C 
ATOM      3  C   LIG d   1       6.199  -9.954  -4.638  0.00  0.00     0.106 A 
ATOM      4  C   LIG d   1       4.998  -9.385  -4.887  0.00  0.00     0.050 A 
ATOM      5  N   LIG d   1       4.047 -10.311  -4.603  0.00  0.00    -0.348 N 
ATOM      6  C   LIG d   1       4.694 -11.426  -4.189  0.00  0.00     0.094 A 
ATOM      7  N   LIG d   1       5.982 -11.200  -4.214  0.00  0.00    -0.235 NA
ATOM      8  H   LIG d   1       3.087 -10.196  -4.682  0.00  0.00     0.167 HD
ATOM      9  C   LIG d   1       4.842  -7.972  -5.389  0.00  0.00     0.042 C 
ATOM     10  C   LIG d   1       6.212  -7.507  -5.906  0.00  0.00     0.065 C 
ATOM     11  H   LIG d   1       6.451  -8.040  -6.827  0.00  0.00     0.096 H 
ATOM     12  H   LIG d   1       7.976  -9.563  -5.759  0.00  0.00     0.088 H 
ATOM     13  H   LIG d   1       8.174  -9.445  -3.992  0.00  0.00     0.088 H 
ATOM     14  H   LIG d   1       4.224 -12.350  -3.887  0.00  0.00     0.103 H 
ATOM     15  H   LIG d   1       4.113  -7.945  -6.199  0.00  0.00     0.039 H 
ATOM     16  H   LIG d   1       4.515  -7.325  -4.576  0.00  0.00     0.039 H 
ATOM     17  H   LIG d   1       6.922  -7.467  -3.995  0.00  0.00     0.205 HD
ENDROOT
BRANCH  10  18
ATOM     18  C   LIG d   1       6.168  -6.027  -6.180  0.00  0.00     0.276 A 
ATOM     19  O   LIG d   1       6.466  -5.438  -7.345  0.00  0.00    -0.332 OA
ATOM     20  N   LIG d   1       6.287  -4.042  -7.147  0.00  0.00    -0.056 NA
ATOM     21  C   LIG d   1       5.908  -3.891  -5.902  0.00  0.00     0.202 A 
ATOM     22  N   LIG d   1       5.839  -5.103  -5.322  0.00  0.00    -0.186 NA
BRANCH  21  23
ATOM     23  C   LIG d   1       5.606  -2.597  -5.241  0.00  0.00     0.023 A 
ATOM     24  C   LIG d   1       6.171  -2.296  -4.003  0.00  0.00    -0.048 A 
ATOM     25  C   LIG d   1       5.893  -1.091  -3.395  0.00  0.00    -0.019 A 
ATOM     26  H   LIG d   1       6.831  -3.004  -3.523  0.00  0.00     0.063 H 
ATOM     27  C   LIG d   1       5.040  -0.182  -4.007  0.00  0.00     0.130 A 
ATOM     28  H   LIG d   1       6.336  -0.854  -2.438  0.00  0.00     0.065 H 
ATOM     29  C   LIG d   1       4.471  -0.482  -5.237  0.00  0.00    -0.019 A 
ATOM     30  C   LIG d   1       4.750  -1.684  -5.854  0.00  0.00    -0.048 A 
ATOM     31  H   LIG d   1       3.808   0.227  -5.712  0.00  0.00     0.065 H 
ATOM     32  H   LIG d   1       4.307  -1.916  -6.811  0.00  0.00     0.063 H 
BRANCH  27  33
ATOM     33  O   LIG d   1       4.764   1.002  -3.403  0.00  0.00    -0.406 OA
BRANCH  33  34
ATOM     34  C   LIG d   1       3.894   0.965  -2.270  0.00  0.00     0.575 C 
ATOM     35  F   LIG d   1       3.091  -0.178  -2.336  0.00  0.00    -0.133 F 
ATOM     36  F   LIG d   1       4.656   0.933  -1.097  0.00  0.00    -0.133 F 
ATOM     37  F   LIG d   1       3.083   2.106  -2.268  0.00  0.00    -0.133 F 
ENDBRANCH  33  34
ENDBRANCH  27  33
ENDBRANCH  21  23
ENDBRANCH  10  18
BRANCH   1  38
ATOM     38  C   LIG d   1       8.477  -7.079  -5.254  0.00  0.00     0.002 C 
ATOM     39  H   LIG d   1       8.288  -6.422  -6.103  0.00  0.00     0.087 H 
ATOM     40  H   LIG d   1       9.248  -7.804  -5.521  0.00  0.00     0.087 H 
BRANCH  38  41
ATOM     41  C   LIG d   1       8.945  -6.261  -4.079  0.00  0.00     0.034 A 
ATOM     42  C   LIG d   1       9.014  -4.913  -3.949  0.00  0.00    -0.046 A 
ATOM     43  C   LIG d   1       9.480  -4.377  -2.764  0.00  0.00    -0.054 A 
ATOM     44  H   LIG d   1       8.709  -4.269  -4.761  0.00  0.00     0.063 H 
ATOM     45  C   LIG d   1       9.855  -5.213  -1.766  0.00  0.00    -0.024 A 
ATOM     46  H   LIG d   1       9.550  -3.306  -2.638  0.00  0.00     0.062 H 
ATOM     47  S   LIG d   1       9.550  -6.815  -2.493  0.00  0.00    -0.096 SA
ATOM     48  H   LIG d   1      10.239  -4.973  -0.785  0.00  0.00     0.069 H 
ENDBRANCH  38  41
ENDBRANCH   1  38
TORSDOF 6
ENDMDL
MODEL 4
REMARK VINA RESULT:      -6.8      5.043      8.415
REMARK  6 active torsions:
REMARK  status: ('A' for Active; 'I' for Inactive)
REMARK    1  A    between atoms: C_3  and  C_6 
REMARK    2  A    between atoms: C_6  and  N_7 
REMARK    3  A    between atoms: C_16  and  C_18 
REMARK    4  A    between atoms: C_20  and  C_23 
REMARK    5  A    between atoms: C_26  and  O_29 
REMARK    6  A    between atoms: O_29  and  C_30 
ROOT
ATOM      1  N   LIG d   1      10.328   6.334  -4.002  0.00  0.00     0.252 N 
ATOM      2  C   LIG d   1      10.308   7.709  -4.525  0.00  0.00     0.014 C 
ATOM      3  C   LIG d   1      11.151   7.757  -5.774  0.00  0.00     0.106 A 
ATOM      4  C   LIG d   1      11.507   6.653  -6.470  0.00  0.00     0.050 A 
ATOM      5  N   LIG d   1      12.259   7.066  -7.522  0.00  0.00    -0.348 N 
ATOM      6  C   LIG d   1      12.341   8.415  -7.444  0.00  0.00     0.094 A 
ATOM      7  N   LIG d   1      11.674   8.817  -6.393  0.00  0.00    -0.235 NA
ATOM      8  H   LIG d   1      12.660   6.501  -8.201  0.00  0.00     0.167 HD
ATOM      9  C   LIG d   1      11.094   5.259  -6.073  0.00  0.00     0.042 C 
ATOM     10  C   LIG d   1       9.950   5.383  -5.055  0.00  0.00     0.065 C 
ATOM     11  H   LIG d   1       9.052   5.739  -5.561  0.00  0.00     0.096 H 
ATOM     12  H   LIG d   1       9.284   7.996  -4.763  0.00  0.00     0.088 H 
ATOM     13  H   LIG d   1      10.716   8.391  -3.778  0.00  0.00     0.088 H 
ATOM     14  H   LIG d   1      12.870   9.054  -8.134  0.00  0.00     0.103 H 
ATOM     15  H   LIG d   1      10.751   4.711  -6.951  0.00  0.00     0.039 H 
ATOM     16  H   LIG d   1      11.938   4.739  -5.619  0.00  0.00     0.039 H 
ATOM     17  H   LIG d   1      11.257   6.116  -3.673  0.00  0.00     0.205 HD
ENDROOT
BRANCH  10  18
ATOM     18  C   LIG d   1       9.677   4.035  -4.441  0.00  0.00     0.276 A 
ATOM     19  O   LIG d   1      10.529   3.334  -3.682  0.00  0.00    -0.332 OA
ATOM     20  N   LIG d   1       9.856   2.136  -3.324  0.00  0.00    -0.056 NA
ATOM     21  C   LIG d   1       8.673   2.194  -3.886  0.00  0.00     0.202 A 
ATOM     22  N   LIG d   1       8.574   3.352  -4.563  0.00  0.00    -0.186 NA
BRANCH  21  23
ATOM     23  C   LIG d   1       7.618   1.154  -3.791  0.00  0.00     0.023 A 
ATOM     24  C   LIG d   1       7.920  -0.176  -4.077  0.00  0.00    -0.048 A 
ATOM     25  C   LIG d   1       6.940  -1.140  -3.982  0.00  0.00    -0.019 A 
ATOM     26  H   LIG d   1       8.924  -0.451  -4.368  0.00  0.00     0.063 H 
ATOM     27  C   LIG d   1       5.649  -0.785  -3.613  0.00  0.00     0.130 A 
ATOM     28  H   LIG d   1       7.175  -2.172  -4.198  0.00  0.00     0.065 H 
ATOM     29  C   LIG d   1       5.343   0.540  -3.333  0.00  0.00    -0.019 A 
ATOM     30  C   LIG d   1       6.322   1.508  -3.421  0.00  0.00    -0.048 A 
ATOM     31  H   LIG d   1       4.338   0.813  -3.046  0.00  0.00     0.065 H 
ATOM     32  H   LIG d   1       6.083   2.538  -3.203  0.00  0.00     0.063 H 
BRANCH  27  33
ATOM     33  O   LIG d   1       4.684  -1.737  -3.526  0.00  0.00    -0.406 OA
BRANCH  33  34
ATOM     34  C   LIG d   1       3.863  -1.723  -2.356  0.00  0.00     0.575 C 
ATOM     35  F   LIG d   1       3.515  -3.034  -2.015  0.00  0.00    -0.133 F 
ATOM     36  F   LIG d   1       4.566  -1.137  -1.299  0.00  0.00    -0.133 F 
ATOM     37  F   LIG d   1       2.702  -0.984  -2.611  0.00  0.00    -0.133 F 
ENDBRANCH  33  34
ENDBRANCH  27  33
ENDBRANCH  21  23
ENDBRANCH  10  18
BRANCH   1  38
ATOM     38  C   LIG d   1       9.380   6.224  -2.886  0.00  0.00     0.002 C 
ATOM     39  H   LIG d   1       8.922   5.234  -2.894  0.00  0.00     0.087 H 
ATOM     40  H   LIG d   1       8.605   6.983  -2.990  0.00  0.00     0.087 H 
BRANCH  38  41
ATOM     41  C   LIG d   1      10.110   6.429  -1.584  0.00  0.00     0.034 A 
ATOM     42  C   LIG d   1      10.865   5.550  -0.880  0.00  0.00    -0.046 A 
ATOM     43  C   LIG d   1      11.448   5.964   0.303  0.00  0.00    -0.054 A 
ATOM     44  H   LIG d   1      11.010   4.542  -1.240  0.00  0.00     0.063 H 
ATOM     45  C   LIG d   1      11.247   7.235   0.726  0.00  0.00    -0.024 A 
ATOM     46  H   LIG d   1      12.050   5.281   0.885  0.00  0.00     0.062 H 
ATOM     47  S   LIG d   1      10.207   7.894  -0.569  0.00  0.00    -0.096 SA
ATOM     48  H   LIG d   1      11.619   7.724   1.614  0.00  0.00     0.069 H 
ENDBRANCH  38  41
ENDBRANCH   1  38
TORSDOF 6
ENDMDL
MODEL 5
REMARK VINA RESULT:      -6.7      7.253      9.021
REMARK  6 active torsions:
REMARK  status: ('A' for Active; 'I' for Inactive)
REMARK    1  A    between atoms: C_3  and  C_6 
REMARK    2  A    between atoms: C_6  and  N_7 
REMARK    3  A    between atoms: C_16  and  C_18 
REMARK    4  A    between atoms: C_20  and  C_23 
REMARK    5  A    between atoms: C_26  and  O_29 
REMARK    6  A    between atoms: O_29  and  C_30 
ROOT
ATOM      1  N   LIG d   1       6.208  -8.414  -6.865  0.00  0.00     0.252 N 
ATOM      2  C   LIG d   1       7.255  -9.289  -7.417  0.00  0.00     0.014 C 
ATOM      3  C   LIG d   1       6.974  -9.502  -8.884  0.00  0.00     0.106 A 
ATOM      4  C   LIG d   1       6.149  -8.707  -9.603  0.00  0.00     0.050 A 
ATOM      5  N   LIG d   1       6.130  -9.190 -10.872  0.00  0.00    -0.348 N 
ATOM      6  C   LIG d   1       6.948 -10.269 -10.895  0.00  0.00     0.094 A 
ATOM      7  N   LIG d   1       7.448 -10.446  -9.699  0.00  0.00    -0.235 NA
ATOM      8  H   LIG d   1       5.626  -8.831 -11.618  0.00  0.00     0.167 HD
ATOM      9  C   LIG d   1       5.427  -7.522  -9.016  0.00  0.00     0.042 C 
ATOM     10  C   LIG d   1       6.089  -7.192  -7.670  0.00  0.00     0.065 C 
ATOM     11  H   LIG d   1       7.082  -6.775  -7.847  0.00  0.00     0.096 H 
ATOM     12  H   LIG d   1       8.229  -8.816  -7.296  0.00  0.00     0.088 H 
ATOM     13  H   LIG d   1       7.244 -10.247  -6.897  0.00  0.00     0.088 H 
ATOM     14  H   LIG d   1       7.154 -10.883 -11.759  0.00  0.00     0.103 H 
ATOM     15  H   LIG d   1       5.510  -6.668  -9.689  0.00  0.00     0.039 H 
ATOM     16  H   LIG d   1       4.377  -7.768  -8.861  0.00  0.00     0.039 H 
ATOM     17  H   LIG d   1       5.326  -8.906  -6.872  0.00  0.00     0.205 HD
ENDROOT
BRANCH  10  18
ATOM     18  C   LIG d   1       5.248  -6.184  -6.931  0.00  0.00     0.276 A 
ATOM     19  O   LIG d   1       3.959  -6.333  -6.600  0.00  0.00    -0.332 OA
ATOM     20  N   LIG d   1       3.579  -5.146  -5.918  0.00  0.00    -0.056 NA
ATOM     21  C   LIG d   1       4.641  -4.378  -5.892  0.00  0.00     0.202 A 
ATOM     22  N   LIG d   1       5.650  -5.018  -6.510  0.00  0.00    -0.186 NA
BRANCH  21  23
ATOM     23  C   LIG d   1       4.718  -3.028  -5.281  0.00  0.00     0.023 A 
ATOM     24  C   LIG d   1       5.036  -2.889  -3.931  0.00  0.00    -0.048 A 
ATOM     25  C   LIG d   1       5.112  -1.633  -3.368  0.00  0.00    -0.019 A 
ATOM     26  H   LIG d   1       5.227  -3.765  -3.328  0.00  0.00     0.063 H 
ATOM     27  C   LIG d   1       4.860  -0.507  -4.142  0.00  0.00     0.130 A 
ATOM     28  H   LIG d   1       5.364  -1.524  -2.323  0.00  0.00     0.065 H 
ATOM     29  C   LIG d   1       4.538  -0.643  -5.485  0.00  0.00    -0.019 A 
ATOM     30  C   LIG d   1       4.466  -1.897  -6.055  0.00  0.00    -0.048 A 
ATOM     31  H   LIG d   1       4.342   0.234  -6.085  0.00  0.00     0.065 H 
ATOM     32  H   LIG d   1       4.215  -2.002  -7.100  0.00  0.00     0.063 H 
BRANCH  27  33
ATOM     33  O   LIG d   1       4.931   0.728  -3.583  0.00  0.00    -0.406 OA
BRANCH  33  34
ATOM     34  C   LIG d   1       3.819   1.146  -2.789  0.00  0.00     0.575 C 
ATOM     35  F   LIG d   1       4.198   1.195  -1.444  0.00  0.00    -0.133 F 
ATOM     36  F   LIG d   1       3.401   2.416  -3.203  0.00  0.00    -0.133 F 
ATOM     37  F   LIG d   1       2.767   0.236  -2.945  0.00  0.00    -0.133 F 
ENDBRANCH  33  34
ENDBRANCH  27  33
ENDBRANCH  21  23
ENDBRANCH  10  18
BRANCH   1  38
ATOM     38  C   LIG d   1       6.552  -8.055  -5.484  0.00  0.00     0.002 C 
ATOM     39  H   LIG d   1       6.228  -7.034  -5.281  0.00  0.00     0.087 H 
ATOM     40  H   LIG d   1       7.632  -8.126  -5.348  0.00  0.00     0.087 H 
BRANCH  38  41
ATOM     41  C   LIG d   1       5.864  -8.999  -4.532  0.00  0.00     0.034 A 
ATOM     42  C   LIG d   1       4.547  -9.305  -4.435  0.00  0.00    -0.046 A 
ATOM     43  C   LIG d   1       4.138 -10.211  -3.475  0.00  0.00    -0.054 A 
ATOM     44  H   LIG d   1       3.828  -8.847  -5.099  0.00  0.00     0.063 H 
ATOM     45  C   LIG d   1       5.066 -10.767  -2.658  0.00  0.00    -0.024 A 
ATOM     46  H   LIG d   1       3.094 -10.467  -3.373  0.00  0.00     0.062 H 
ATOM     47  S   LIG d   1       6.573 -10.008  -3.241  0.00  0.00    -0.096 SA
ATOM     48  H   LIG d   1       4.929 -11.485  -1.862  0.00  0.00     0.069 H 
ENDBRANCH  38  41
ENDBRANCH   1  38
TORSDOF 6
ENDMDL
MODEL 6
REMARK VINA RESULT:      -6.7      4.817      8.069
REMARK  6 active torsions:
REMARK  status: ('A' for Active; 'I' for Inactive)
REMARK    1  A    between atoms: C_3  and  C_6 
REMARK    2  A    between atoms: C_6  and  N_7 
REMARK    3  A    between atoms: C_16  and  C_18 
REMARK    4  A    between atoms: C_20  and  C_23 
REMARK    5  A    between atoms: C_26  and  O_29 
REMARK    6  A    between atoms: O_29  and  C_30 
ROOT
ATOM      1  N   LIG d   1      10.245   5.160  -6.490  0.00  0.00     0.252 N 
ATOM      2  C   LIG d   1      10.890   6.331  -7.105  0.00  0.00     0.014 C 
ATOM      3  C   LIG d   1      10.225   7.576  -6.576  0.00  0.00     0.106 A 
ATOM      4  C   LIG d   1       9.465   7.590  -5.457  0.00  0.00     0.050 A 
ATOM      5  N   LIG d   1       9.028   8.864  -5.283  0.00  0.00    -0.348 N 
ATOM      6  C   LIG d   1       9.537   9.598  -6.302  0.00  0.00     0.094 A 
ATOM      7  N   LIG d   1      10.251   8.815  -7.069  0.00  0.00    -0.235 NA
ATOM      8  H   LIG d   1       8.461   9.187  -4.566  0.00  0.00     0.167 HD
ATOM      9  C   LIG d   1       9.208   6.365  -4.618  0.00  0.00     0.042 C 
ATOM     10  C   LIG d   1      10.232   5.296  -5.028  0.00  0.00     0.065 C 
ATOM     11  H   LIG d   1      11.223   5.591  -4.681  0.00  0.00     0.096 H 
ATOM     12  H   LIG d   1      11.949   6.343  -6.847  0.00  0.00     0.088 H 
ATOM     13  H   LIG d   1      10.777   6.285  -8.189  0.00  0.00     0.088 H 
ATOM     14  H   LIG d   1       9.378  10.654  -6.456  0.00  0.00     0.103 H 
ATOM     15  H   LIG d   1       9.328   6.607  -3.562  0.00  0.00     0.039 H 
ATOM     16  H   LIG d   1       8.198   5.998  -4.800  0.00  0.00     0.039 H 
ATOM     17  H   LIG d   1       9.297   5.088  -6.828  0.00  0.00     0.205 HD
ENDROOT
BRANCH  10  18
ATOM     18  C   LIG d   1       9.856   3.977  -4.405  0.00  0.00     0.276 A 
ATOM     19  O   LIG d   1      10.629   3.249  -3.589  0.00  0.00    -0.332 OA
ATOM     20  N   LIG d   1       9.875   2.095  -3.246  0.00  0.00    -0.056 NA
ATOM     21  C   LIG d   1       8.728   2.202  -3.871  0.00  0.00     0.202 A 
ATOM     22  N   LIG d   1       8.727   3.350  -4.574  0.00  0.00    -0.186 NA
BRANCH  21  23
ATOM     23  C   LIG d   1       7.616   1.220  -3.814  0.00  0.00     0.023 A 
ATOM     24  C   LIG d   1       6.368   1.607  -3.330  0.00  0.00    -0.048 A 
ATOM     25  C   LIG d   1       5.336   0.695  -3.284  0.00  0.00    -0.019 A 
ATOM     26  H   LIG d   1       6.208   2.622  -2.995  0.00  0.00     0.063 H 
ATOM     27  C   LIG d   1       5.542  -0.612  -3.708  0.00  0.00     0.130 A 
ATOM     28  H   LIG d   1       4.366   0.995  -2.913  0.00  0.00     0.065 H 
ATOM     29  C   LIG d   1       6.786  -1.001  -4.185  0.00  0.00    -0.019 A 
ATOM     30  C   LIG d   1       7.821  -0.091  -4.239  0.00  0.00    -0.048 A 
ATOM     31  H   LIG d   1       6.944  -2.017  -4.515  0.00  0.00     0.065 H 
ATOM     32  H   LIG d   1       8.789  -0.394  -4.611  0.00  0.00     0.063 H 
BRANCH  27  33
ATOM     33  O   LIG d   1       4.524  -1.509  -3.656  0.00  0.00    -0.406 OA
BRANCH  33  34
ATOM     34  C   LIG d   1       3.814  -1.615  -2.421  0.00  0.00     0.575 C 
ATOM     35  F   LIG d   1       2.611  -0.906  -2.512  0.00  0.00    -0.133 F 
ATOM     36  F   LIG d   1       3.543  -2.961  -2.151  0.00  0.00    -0.133 F 
ATOM     37  F   LIG d   1       4.593  -1.080  -1.388  0.00  0.00    -0.133 F 
ENDBRANCH  33  34
ENDBRANCH  27  33
ENDBRANCH  21  23
ENDBRANCH  10  18
BRANCH   1  38
ATOM     38  C   LIG d   1      10.986   3.947  -6.859  0.00  0.00     0.002 C 
ATOM     39  H   LIG d   1      10.996   3.256  -6.015  0.00  0.00     0.087 H 
ATOM     40  H   LIG d   1      12.010   4.212  -7.123  0.00  0.00     0.087 H 
BRANCH  38  41
ATOM     41  C   LIG d   1      10.317   3.289  -8.038  0.00  0.00     0.034 A 
ATOM     42  C   LIG d   1       9.048   2.826  -8.152  0.00  0.00    -0.046 A 
ATOM     43  C   LIG d   1       8.649   2.253  -9.345  0.00  0.00    -0.054 A 
ATOM     44  H   LIG d   1       8.360   2.905  -7.323  0.00  0.00     0.063 H 
ATOM     45  C   LIG d   1       9.537   2.169 -10.365  0.00  0.00    -0.024 A 
ATOM     46  H   LIG d   1       7.644   1.872  -9.459  0.00  0.00     0.062 H 
ATOM     47  S   LIG d   1      10.992   2.917  -9.648  0.00  0.00    -0.096 SA
ATOM     48  H   LIG d   1       9.400   1.758 -11.355  0.00  0.00     0.069 H 
ENDBRANCH  38  41
ENDBRANCH   1  38
TORSDOF 6
ENDMDL
MODEL 7
REMARK VINA RESULT:      -6.7      5.138      9.089
REMARK  6 active torsions:
REMARK  status: ('A' for Active; 'I' for Inactive)
REMARK    1  A    between atoms: C_3  and  C_6 
REMARK    2  A    between atoms: C_6  and  N_7 
REMARK    3  A    between atoms: C_16  and  C_18 
REMARK    4  A    between atoms: C_20  and  C_23 
REMARK    5  A    between atoms: C_26  and  O_29 
REMARK    6  A    between atoms: O_29  and  C_30 
ROOT
ATOM      1  N   LIG d   1       9.753   6.090  -4.125  0.00  0.00     0.252 N 
ATOM      2  C   LIG d   1      10.342   7.431  -3.977  0.00  0.00     0.014 C 
ATOM      3  C   LIG d   1      10.355   7.788  -2.512  0.00  0.00     0.106 A 
ATOM      4  C   LIG d   1      10.218   6.872  -1.526  0.00  0.00     0.050 A 
ATOM      5  N   LIG d   1      10.272   7.541  -0.346  0.00  0.00    -0.348 N 
ATOM      6  C   LIG d   1      10.443   8.851  -0.642  0.00  0.00     0.094 A 
ATOM      7  N   LIG d   1      10.490   8.986  -1.943  0.00  0.00    -0.235 NA
ATOM      8  H   LIG d   1      10.201   7.154   0.540  0.00  0.00     0.167 HD
ATOM      9  C   LIG d   1      10.045   5.398  -1.787  0.00  0.00     0.042 C 
ATOM     10  C   LIG d   1      10.439   5.133  -3.248  0.00  0.00     0.065 C 
ATOM     11  H   LIG d   1      11.518   5.248  -3.358  0.00  0.00     0.096 H 
ATOM     12  H   LIG d   1      11.362   7.428  -4.362  0.00  0.00     0.088 H 
ATOM     13  H   LIG d   1       9.744   8.157  -4.529  0.00  0.00     0.088 H 
ATOM     14  H   LIG d   1      10.525   9.653   0.076  0.00  0.00     0.103 H 
ATOM     15  H   LIG d   1      10.690   4.826  -1.120  0.00  0.00     0.039 H 
ATOM     16  H   LIG d   1       9.005   5.114  -1.628  0.00  0.00     0.039 H 
ATOM     17  H   LIG d   1       8.775   6.128  -3.879  0.00  0.00     0.205 HD
ENDROOT
BRANCH  10  18
ATOM     18  C   LIG d   1      10.043   3.731  -3.628  0.00  0.00     0.276 A 
ATOM     19  O   LIG d   1      10.823   2.839  -4.252  0.00  0.00    -0.332 OA
ATOM     20  N   LIG d   1      10.045   1.661  -4.404  0.00  0.00    -0.056 NA
ATOM     21  C   LIG d   1       8.872   1.921  -3.878  0.00  0.00     0.202 A 
ATOM     22  N   LIG d   1       8.881   3.182  -3.409  0.00  0.00    -0.186 NA
BRANCH  21  23
ATOM     23  C   LIG d   1       7.726   0.981  -3.811  0.00  0.00     0.023 A 
ATOM     24  C   LIG d   1       6.463   1.444  -3.447  0.00  0.00    -0.048 A 
ATOM     25  C   LIG d   1       5.399   0.570  -3.392  0.00  0.00    -0.019 A 
ATOM     26  H   LIG d   1       6.317   2.489  -3.213  0.00  0.00     0.063 H 
ATOM     27  C   LIG d   1       5.587  -0.774  -3.687  0.00  0.00     0.130 A 
ATOM     28  H   LIG d   1       4.419   0.929  -3.115  0.00  0.00     0.065 H 
ATOM     29  C   LIG d   1       6.845  -1.240  -4.044  0.00  0.00    -0.019 A 
ATOM     30  C   LIG d   1       7.912  -0.368  -4.107  0.00  0.00    -0.048 A 
ATOM     31  H   LIG d   1       6.989  -2.286  -4.273  0.00  0.00     0.065 H 
ATOM     32  H   LIG d   1       8.891  -0.731  -4.385  0.00  0.00     0.063 H 
BRANCH  27  33
ATOM     33  O   LIG d   1       4.538  -1.634  -3.626  0.00  0.00    -0.406 OA
BRANCH  33  34
ATOM     34  C   LIG d   1       3.779  -1.648  -2.415  0.00  0.00     0.575 C 
ATOM     35  F   LIG d   1       4.512  -1.030  -1.398  0.00  0.00    -0.133 F 
ATOM     36  F   LIG d   1       2.577  -0.957  -2.610  0.00  0.00    -0.133 F 
ATOM     37  F   LIG d   1       3.502  -2.971  -2.054  0.00  0.00    -0.133 F 
ENDBRANCH  33  34
ENDBRANCH  27  33
ENDBRANCH  21  23
ENDBRANCH  10  18
BRANCH   1  38
ATOM     38  C   LIG d   1       9.886   5.652  -5.521  0.00  0.00     0.002 C 
ATOM     39  H   LIG d   1       9.005   5.078  -5.807  0.00  0.00     0.087 H 
ATOM     40  H   LIG d   1      10.774   5.027  -5.623  0.00  0.00     0.087 H 
BRANCH  38  41
ATOM     41  C   LIG d   1      10.015   6.857  -6.416  0.00  0.00     0.034 A 
ATOM     42  C   LIG d   1       9.077   7.778  -6.750  0.00  0.00    -0.046 A 
ATOM     43  C   LIG d   1       9.426   8.812  -7.598  0.00  0.00    -0.054 A 
ATOM     44  H   LIG d   1       8.074   7.704  -6.357  0.00  0.00     0.063 H 
ATOM     45  C   LIG d   1      10.694   8.875  -8.072  0.00  0.00    -0.024 A 
ATOM     46  H   LIG d   1       8.696   9.555  -7.883  0.00  0.00     0.062 H 
ATOM     47  S   LIG d   1      11.443   7.443  -7.313  0.00  0.00    -0.096 SA
ATOM     48  H   LIG d   1      11.137   9.603  -8.736  0.00  0.00     0.069 H 
ENDBRANCH  38  41
ENDBRANCH   1  38
TORSDOF 6
ENDMDL
MODEL 8
REMARK VINA RESULT:      -6.4      6.801      9.320
REMARK  6 active torsions:
REMARK  status: ('A' for Active; 'I' for Inactive)
REMARK    1  A    between atoms: C_3  and  C_6 
REMARK    2  A    between atoms: C_6  and  N_7 
REMARK    3  A    between atoms: C_16  and  C_18 
REMARK    4  A    between atoms: C_20  and  C_23 
REMARK    5  A    between atoms: C_26  and  O_29 
REMARK    6  A    between atoms: O_29  and  C_30 
ROOT
ATOM      1  N   LIG d   1       4.210  -0.520  -6.464  0.00  0.00     0.252 N 
ATOM      2  C   LIG d   1       3.143   0.337  -7.005  0.00  0.00     0.014 C 
ATOM      3  C   LIG d   1       3.600   0.889  -8.332  0.00  0.00     0.106 A 
ATOM      4  C   LIG d   1       4.624   0.361  -9.040  0.00  0.00     0.050 A 
ATOM      5  N   LIG d   1       4.760   1.105 -10.168  0.00  0.00    -0.348 N 
ATOM      6  C   LIG d   1       3.810   2.070 -10.120  0.00  0.00     0.094 A 
ATOM      7  N   LIG d   1       3.123   1.931  -9.016  0.00  0.00    -0.235 NA
ATOM      8  H   LIG d   1       5.412   0.971 -10.873  0.00  0.00     0.167 HD
ATOM      9  C   LIG d   1       5.412  -0.839  -8.582  0.00  0.00     0.042 C 
ATOM     10  C   LIG d   1       4.614  -1.520  -7.460  0.00  0.00     0.065 C 
ATOM     11  H   LIG d   1       3.726  -1.992  -7.882  0.00  0.00     0.096 H 
ATOM     12  H   LIG d   1       2.237  -0.253  -7.147  0.00  0.00     0.088 H 
ATOM     13  H   LIG d   1       2.943   1.155  -6.313  0.00  0.00     0.088 H 
ATOM     14  H   LIG d   1       3.648   2.830 -10.869  0.00  0.00     0.103 H 
ATOM     15  H   LIG d   1       5.548  -1.532  -9.413  0.00  0.00     0.039 H 
ATOM     16  H   LIG d   1       6.383  -0.521  -8.204  0.00  0.00     0.039 H 
ATOM     17  H   LIG d   1       5.006   0.053  -6.224  0.00  0.00     0.205 HD
ENDROOT
BRANCH  10  18
ATOM     18  C   LIG d   1       5.472  -2.568  -6.800  0.00  0.00     0.276 A 
ATOM     19  O   LIG d   1       6.695  -2.371  -6.291  0.00  0.00    -0.332 OA
ATOM     20  N   LIG d   1       7.121  -3.623  -5.773  0.00  0.00    -0.056 NA
ATOM     21  C   LIG d   1       6.149  -4.471  -6.007  0.00  0.00     0.202 A 
ATOM     22  N   LIG d   1       5.151  -3.819  -6.632  0.00  0.00    -0.186 NA
BRANCH  21  23
ATOM     23  C   LIG d   1       6.149  -5.909  -5.643  0.00  0.00     0.023 A 
ATOM     24  C   LIG d   1       7.350  -6.559  -5.363  0.00  0.00    -0.048 A 
ATOM     25  C   LIG d   1       7.346  -7.894  -5.020  0.00  0.00    -0.019 A 
ATOM     26  H   LIG d   1       8.282  -6.015  -5.411  0.00  0.00     0.063 H 
ATOM     27  C   LIG d   1       6.148  -8.595  -4.964  0.00  0.00     0.130 A 
ATOM     28  H   LIG d   1       8.276  -8.397  -4.797  0.00  0.00     0.065 H 
ATOM     29  C   LIG d   1       4.951  -7.952  -5.249  0.00  0.00    -0.019 A 
ATOM     30  C   LIG d   1       4.948  -6.615  -5.587  0.00  0.00    -0.048 A 
ATOM     31  H   LIG d   1       4.021  -8.499  -5.204  0.00  0.00     0.065 H 
ATOM     32  H   LIG d   1       4.016  -6.115  -5.808  0.00  0.00     0.063 H 
BRANCH  27  33
ATOM     33  O   LIG d   1       6.149  -9.911  -4.631  0.00  0.00    -0.406 OA
BRANCH  33  34
ATOM     34  C   LIG d   1       5.984 -10.231  -3.248  0.00  0.00     0.575 C 
ATOM     35  F   LIG d   1       6.310 -11.574  -3.037  0.00  0.00    -0.133 F 
ATOM     36  F   LIG d   1       6.825  -9.420  -2.478  0.00  0.00    -0.133 F 
ATOM     37  F   LIG d   1       4.653 -10.009  -2.874  0.00  0.00    -0.133 F 
ENDBRANCH  33  34
ENDBRANCH  27  33
ENDBRANCH  21  23
ENDBRANCH  10  18
BRANCH   1  38
ATOM     38  C   LIG d   1       3.722  -1.203  -5.259  0.00  0.00     0.002 C 
ATOM     39  H   LIG d   1       4.229  -2.162  -5.154  0.00  0.00     0.087 H 
ATOM     40  H   LIG d   1       2.648  -1.368  -5.345  0.00  0.00     0.087 H 
BRANCH  38  41
ATOM     41  C   LIG d   1       4.004  -0.350  -4.049  0.00  0.00     0.034 A 
ATOM     42  C   LIG d   1       3.148   0.406  -3.319  0.00  0.00    -0.046 A 
ATOM     43  C   LIG d   1       3.635   1.112  -2.236  0.00  0.00    -0.054 A 
ATOM     44  H   LIG d   1       2.100   0.453  -3.579  0.00  0.00     0.063 H 
ATOM     45  C   LIG d   1       4.954   1.031  -1.936  0.00  0.00    -0.024 A 
ATOM     46  H   LIG d   1       2.974   1.726  -1.640  0.00  0.00     0.062 H 
ATOM     47  S   LIG d   1       5.552  -0.074  -3.206  0.00  0.00    -0.096 SA
ATOM     48  H   LIG d   1       5.501   1.509  -1.137  0.00  0.00     0.069 H 
ENDBRANCH  38  41
ENDBRANCH   1  38
TORSDOF 6
ENDMDL
MODEL 9
REMARK VINA RESULT:      -6.4      2.845      3.742
REMARK  6 active torsions:
REMARK  status: ('A' for Active; 'I' for Inactive)
REMARK    1  A    between atoms: C_3  and  C_6 
REMARK    2  A    between atoms: C_6  and  N_7 
REMARK    3  A    between atoms: C_16  and  C_18 
REMARK    4  A    between atoms: C_20  and  C_23 
REMARK    5  A    between atoms: C_26  and  O_29 
REMARK    6  A    between atoms: O_29  and  C_30 
ROOT
ATOM      1  N   LIG d   1       7.309  -2.153  -4.745  0.00  0.00     0.252 N 
ATOM      2  C   LIG d   1       7.522  -3.577  -4.443  0.00  0.00     0.014 C 
ATOM      3  C   LIG d   1       8.020  -4.261  -5.692  0.00  0.00     0.106 A 
ATOM      4  C   LIG d   1       8.541  -3.591  -6.745  0.00  0.00     0.050 A 
ATOM      5  N   LIG d   1       8.877  -4.513  -7.683  0.00  0.00    -0.348 N 
ATOM      6  C   LIG d   1       8.555  -5.727  -7.175  0.00  0.00     0.094 A 
ATOM      7  N   LIG d   1       8.042  -5.563  -5.983  0.00  0.00    -0.235 NA
ATOM      8  H   LIG d   1       9.273  -4.337  -8.550  0.00  0.00     0.167 HD
ATOM      9  C   LIG d   1       8.683  -2.091  -6.780  0.00  0.00     0.042 C 
ATOM     10  C   LIG d   1       8.519  -1.573  -5.343  0.00  0.00     0.065 C 
ATOM     11  H   LIG d   1       9.390  -1.860  -4.752  0.00  0.00     0.096 H 
ATOM     12  H   LIG d   1       8.263  -3.677  -3.651  0.00  0.00     0.088 H 
ATOM     13  H   LIG d   1       6.581  -4.029  -4.125  0.00  0.00     0.088 H 
ATOM     14  H   LIG d   1       8.697  -6.674  -7.673  0.00  0.00     0.103 H 
ATOM     15  H   LIG d   1       9.670  -1.822  -7.159  0.00  0.00     0.039 H 
ATOM     16  H   LIG d   1       7.912  -1.661  -7.418  0.00  0.00     0.039 H 
ATOM     17  H   LIG d   1       6.540  -2.061  -5.392  0.00  0.00     0.205 HD
ENDROOT
BRANCH  10  18
ATOM     18  C   LIG d   1       8.399  -0.072  -5.361  0.00  0.00     0.276 A 
ATOM     19  O   LIG d   1       7.580   0.638  -6.147  0.00  0.00    -0.332 OA
ATOM     20  N   LIG d   1       7.800   2.005  -5.826  0.00  0.00    -0.056 NA
ATOM     21  C   LIG d   1       8.721   2.023  -4.895  0.00  0.00     0.202 A 
ATOM     22  N   LIG d   1       9.080   0.755  -4.619  0.00  0.00    -0.186 NA
BRANCH  21  23
ATOM     23  C   LIG d   1       9.277   3.239  -4.251  0.00  0.00     0.023 A 
ATOM     24  C   LIG d   1       9.152   4.479  -4.875  0.00  0.00    -0.048 A 
ATOM     25  C   LIG d   1       9.664   5.607  -4.271  0.00  0.00    -0.019 A 
ATOM     26  H   LIG d   1       8.650   4.556  -5.828  0.00  0.00     0.063 H 
ATOM     27  C   LIG d   1      10.316   5.508  -3.049  0.00  0.00     0.130 A 
ATOM     28  H   LIG d   1       9.563   6.569  -4.752  0.00  0.00     0.065 H 
ATOM     29  C   LIG d   1      10.447   4.273  -2.428  0.00  0.00    -0.019 A 
ATOM     30  C   LIG d   1       9.931   3.142  -3.024  0.00  0.00    -0.048 A 
ATOM     31  H   LIG d   1      10.954   4.199  -1.477  0.00  0.00     0.065 H 
ATOM     32  H   LIG d   1      10.034   2.181  -2.540  0.00  0.00     0.063 H 
BRANCH  27  33
ATOM     33  O   LIG d   1      10.824   6.621  -2.460  0.00  0.00    -0.406 OA
BRANCH  33  34
ATOM     34  C   LIG d   1      10.077   7.182  -1.379  0.00  0.00     0.575 C 
ATOM     35  F   LIG d   1      10.326   6.454  -0.211  0.00  0.00    -0.133 F 
ATOM     36  F   LIG d   1      10.459   8.515  -1.189  0.00  0.00    -0.133 F 
ATOM     37  F   LIG d   1       8.710   7.128  -1.679  0.00  0.00    -0.133 F 
ENDBRANCH  33  34
ENDBRANCH  27  33
ENDBRANCH  21  23
ENDBRANCH  10  18
BRANCH   1  38
ATOM     38  C   LIG d   1       6.988  -1.435  -3.505  0.00  0.00     0.002 C 
ATOM     39  H   LIG d   1       7.457  -0.451  -3.522  0.00  0.00     0.087 H 
ATOM     40  H   LIG d   1       7.362  -2.000  -2.650  0.00  0.00     0.087 H 
BRANCH  38  41
ATOM     41  C   LIG d   1       5.495  -1.278  -3.387  0.00  0.00     0.034 A 
ATOM     42  C   LIG d   1       4.651  -1.798  -2.462  0.00  0.00    -0.046 A 
ATOM     43  C   LIG d   1       3.301  -1.516  -2.552  0.00  0.00    -0.054 A 
ATOM     44  H   LIG d   1       5.029  -2.423  -1.666  0.00  0.00     0.063 H 
ATOM     45  C   LIG d   1       2.860  -0.729  -3.563  0.00  0.00    -0.024 A 
ATOM     46  H   LIG d   1       2.607  -1.922  -1.830  0.00  0.00     0.062 H 
ATOM     47  S   LIG d   1       4.376  -0.358  -4.430  0.00  0.00    -0.096 SA
ATOM     48  H   LIG d   1       1.852  -0.408  -3.786  0.00  0.00     0.069 H 
ENDBRANCH  38  41
ENDBRANCH   1  38
TORSDOF 6
ENDMDL
MODEL 10
REMARK VINA RESULT:      -6.3      7.558     10.119
REMARK  6 active torsions:
REMARK  status: ('A' for Active; 'I' for Inactive)
REMARK    1  A    between atoms: C_3  and  C_6 
REMARK    2  A    between atoms: C_6  and  N_7 
REMARK    3  A    between atoms: C_16  and  C_18 
REMARK    4  A    between atoms: C_20  and  C_23 
REMARK    5  A    between atoms: C_26  and  O_29 
REMARK    6  A    between atoms: O_29  and  C_30 
ROOT
ATOM      1  N   LIG d   1       5.527  -1.684  -6.454  0.00  0.00     0.252 N 
ATOM      2  C   LIG d   1       4.776  -0.456  -6.146  0.00  0.00     0.014 C 
ATOM      3  C   LIG d   1       3.882  -0.137  -7.317  0.00  0.00     0.106 A 
ATOM      4  C   LIG d   1       3.561  -1.040  -8.271  0.00  0.00     0.050 A 
ATOM      5  N   LIG d   1       2.752  -0.413  -9.163  0.00  0.00    -0.348 N 
ATOM      6  C   LIG d   1       2.596   0.860  -8.727  0.00  0.00     0.094 A 
ATOM      7  N   LIG d   1       3.278   1.013  -7.621  0.00  0.00    -0.235 NA
ATOM      8  H   LIG d   1       2.359  -0.802  -9.960  0.00  0.00     0.167 HD
ATOM      9  C   LIG d   1       4.059  -2.462  -8.262  0.00  0.00     0.042 C 
ATOM     10  C   LIG d   1       4.608  -2.755  -6.858  0.00  0.00     0.065 C 
ATOM     11  H   LIG d   1       3.781  -2.811  -6.150  0.00  0.00     0.096 H 
ATOM     12  H   LIG d   1       4.170  -0.613  -5.254  0.00  0.00     0.088 H 
ATOM     13  H   LIG d   1       5.472   0.366  -5.977  0.00  0.00     0.088 H 
ATOM     14  H   LIG d   1       2.007   1.623  -9.212  0.00  0.00     0.103 H 
ATOM     15  H   LIG d   1       3.238  -3.143  -8.488  0.00  0.00     0.039 H 
ATOM     16  H   LIG d   1       4.851  -2.581  -9.001  0.00  0.00     0.039 H 
ATOM     17  H   LIG d   1       6.174  -1.497  -7.206  0.00  0.00     0.205 HD
ENDROOT
BRANCH  10  18
ATOM     18  C   LIG d   1       5.344  -4.069  -6.872  0.00  0.00     0.276 A 
ATOM     19  O   LIG d   1       6.295  -4.425  -7.745  0.00  0.00    -0.332 OA
ATOM     20  N   LIG d   1       6.706  -5.735  -7.381  0.00  0.00    -0.056 NA
ATOM     21  C   LIG d   1       5.984  -6.074  -6.340  0.00  0.00     0.202 A 
ATOM     22  N   LIG d   1       5.159  -5.054  -6.039  0.00  0.00    -0.186 NA
BRANCH  21  23
ATOM     23  C   LIG d   1       6.063  -7.366  -5.616  0.00  0.00     0.023 A 
ATOM     24  C   LIG d   1       4.947  -8.199  -5.548  0.00  0.00    -0.048 A 
ATOM     25  C   LIG d   1       5.026  -9.401  -4.880  0.00  0.00    -0.019 A 
ATOM     26  H   LIG d   1       4.023  -7.904  -6.024  0.00  0.00     0.063 H 
ATOM     27  C   LIG d   1       6.212  -9.779  -4.263  0.00  0.00     0.130 A 
ATOM     28  H   LIG d   1       4.163 -10.050  -4.832  0.00  0.00     0.065 H 
ATOM     29  C   LIG d   1       7.323  -8.949  -4.323  0.00  0.00    -0.019 A 
ATOM     30  C   LIG d   1       7.252  -7.747  -4.996  0.00  0.00    -0.048 A 
ATOM     31  H   LIG d   1       8.245  -9.244  -3.843  0.00  0.00     0.065 H 
ATOM     32  H   LIG d   1       8.117  -7.102  -5.043  0.00  0.00     0.063 H 
BRANCH  27  33
ATOM     33  O   LIG d   1       6.284 -10.962  -3.600  0.00  0.00    -0.406 OA
BRANCH  33  34
ATOM     34  C   LIG d   1       5.567 -11.062  -2.369  0.00  0.00     0.575 C 
ATOM     35  F   LIG d   1       5.702  -9.869  -1.652  0.00  0.00    -0.133 F 
ATOM     36  F   LIG d   1       4.213 -11.295  -2.636  0.00  0.00    -0.133 F 
ATOM     37  F   LIG d   1       6.082 -12.122  -1.614  0.00  0.00    -0.133 F 
ENDBRANCH  33  34
ENDBRANCH  27  33
ENDBRANCH  21  23
ENDBRANCH  10  18
BRANCH   1  38
ATOM     38  C   LIG d   1       6.276  -2.109  -5.264  0.00  0.00     0.002 C 
ATOM     39  H   LIG d   1       7.240  -1.601  -5.240  0.00  0.00     0.087 H 
ATOM     40  H   LIG d   1       6.434  -3.187  -5.299  0.00  0.00     0.087 H 
BRANCH  38  41
ATOM     41  C   LIG d   1       5.492  -1.757  -4.026  0.00  0.00     0.034 A 
ATOM     42  C   LIG d   1       4.485  -2.441  -3.429  0.00  0.00    -0.046 A 
ATOM     43  C   LIG d   1       3.907  -1.921  -2.286  0.00  0.00    -0.054 A 
ATOM     44  H   LIG d   1       4.140  -3.378  -3.841  0.00  0.00     0.063 H 
ATOM     45  C   LIG d   1       4.363  -0.743  -1.796  0.00  0.00    -0.024 A 
ATOM     46  H   LIG d   1       3.099  -2.444  -1.795  0.00  0.00     0.062 H 
ATOM     47  S   LIG d   1       5.650  -0.332  -2.963  0.00  0.00    -0.096 SA
ATOM     48  H   LIG d   1       4.034  -0.195  -0.925  0.00  0.00     0.069 H 
ENDBRANCH  38  41
ENDBRANCH   1  38
TORSDOF 6
ENDMDL
