MODEL 1
REMARK VINA RESULT:      -6.7      0.000      0.000
REMARK  6 active torsions:
REMARK  status: ('A' for Active; 'I' for Inactive)
REMARK    1  A    between atoms: C_1  and  C_2 
REMARK    2  A    between atoms: C_19  and  C_21 
REMARK    3  A    between atoms: C_21  and  N_22 
REMARK    4  A    between atoms: N_25  and  C_28 
REMARK    5  A    between atoms: C_28  and  C_29 
REMARK    6  A    between atoms: C_29  and  O_30 
ROOT
ATOM      1  C   LIG d   1       6.076  -0.050  -3.978  0.00  0.00    -0.022 C 
ATOM      2  C   LIG d   1       5.887   1.181  -3.081  0.00  0.00    -0.047 C 
ATOM      3  C   LIG d   1       4.479   1.162  -2.482  0.00  0.00    -0.049 C 
ATOM      4  C   LIG d   1       4.315  -0.064  -1.578  0.00  0.00    -0.032 C 
ATOM      5  C   LIG d   1       4.693  -1.303  -2.362  0.00  0.00    -0.073 C 
ATOM      6  C   LIG d   1       3.897  -2.343  -2.407  0.00  0.00    -0.099 C 
ATOM      7  C   LIG d   1       6.015  -1.301  -3.090  0.00  0.00    -0.014 C 
ATOM      8  H   LIG d   1       6.827  -1.306  -2.349  0.00  0.00     0.035 H 
ATOM      9  C   LIG d   1       6.158  -2.543  -3.954  0.00  0.00    -0.039 C 
ATOM     10  C   LIG d   1       5.036  -2.643  -4.988  0.00  0.00     0.015 C 
ATOM     11  H   LIG d   1       4.113  -2.903  -4.451  0.00  0.00     0.035 H 
ATOM     12  C   LIG d   1       4.942  -1.342  -5.810  0.00  0.00     0.107 C 
ATOM     13  H   LIG d   1       4.021  -1.243  -6.405  0.00  0.00     0.074 H 
ATOM     14  C   LIG d   1       4.910  -0.099  -4.961  0.00  0.00    -0.009 C 
ATOM     15  O   LIG d   1       6.092  -1.416  -6.698  0.00  0.00    -0.461 OA
ATOM     16  C   LIG d   1       6.179  -2.695  -7.128  0.00  0.00     0.316 C 
ATOM     17  O   LIG d   1       6.678  -3.050  -8.170  0.00  0.00    -0.250 OA
ATOM     18  C   LIG d   1       5.549  -3.612  -6.097  0.00  0.00     0.102 C 
ATOM     19  H   LIG d   1       4.761  -4.240  -6.537  0.00  0.00     0.047 H 
ATOM     20  H   LIG d   1       6.632   1.161  -2.271  0.00  0.00     0.027 H 
ATOM     21  H   LIG d   1       6.020   2.094  -3.679  0.00  0.00     0.027 H 
ATOM     22  H   LIG d   1       4.321   2.075  -1.888  0.00  0.00     0.027 H 
ATOM     23  H   LIG d   1       3.737   1.119  -3.292  0.00  0.00     0.027 H 
ATOM     24  H   LIG d   1       4.971   0.037  -0.702  0.00  0.00     0.031 H 
ATOM     25  H   LIG d   1       3.269  -0.137  -1.247  0.00  0.00     0.031 H 
ATOM     26  H   LIG d   1       4.189  -3.235  -2.981  0.00  0.00     0.053 H 
ATOM     27  H   LIG d   1       2.938  -2.325  -1.869  0.00  0.00     0.053 H 
ATOM     28  H   LIG d   1       7.120  -2.510  -4.488  0.00  0.00     0.028 H 
ATOM     29  H   LIG d   1       6.124  -3.439  -3.317  0.00  0.00     0.028 H 
ATOM     30  H   LIG d   1       3.961  -0.084  -4.405  0.00  0.00     0.031 H 
ATOM     31  H   LIG d   1       4.957   0.775  -5.628  0.00  0.00     0.031 H 
ENDROOT
BRANCH  18  32
ATOM     32  C   LIG d   1       6.594  -4.574  -5.527  0.00  0.00    -0.018 C 
ATOM     33  H   LIG d   1       7.593  -4.283  -5.883  0.00  0.00     0.082 H 
ATOM     34  H   LIG d   1       6.570  -4.532  -4.428  0.00  0.00     0.082 H 
BRANCH  32  35
ATOM     35  N   LIG d   1       6.295  -5.941  -5.970  0.00  0.00     0.238 N 
ATOM     36  C   LIG d   1       6.956  -6.931  -5.107  0.00  0.00    -0.019 C 
ATOM     37  C   LIG d   1       6.685  -8.337  -5.649  0.00  0.00     0.039 C 
ATOM     38  H   LIG d   1       8.040  -6.744  -5.098  0.00  0.00     0.083 H 
ATOM     39  H   LIG d   1       6.559  -6.849  -4.085  0.00  0.00     0.083 H 
ATOM     40  N   LIG d   1       5.235  -8.570  -5.698  0.00  0.00    -0.290 N 
ATOM     41  H   LIG d   1       7.154  -9.081  -4.989  0.00  0.00     0.048 H 
ATOM     42  H   LIG d   1       7.105  -8.428  -6.661  0.00  0.00     0.048 H 
ATOM     43  C   LIG d   1       4.575  -7.580  -6.560  0.00  0.00     0.039 C 
ATOM     44  C   LIG d   1       4.845  -6.174  -6.019  0.00  0.00    -0.019 C 
ATOM     45  H   LIG d   1       3.490  -7.767  -6.570  0.00  0.00     0.048 H 
ATOM     46  H   LIG d   1       4.970  -7.662  -7.583  0.00  0.00     0.048 H 
ATOM     47  H   LIG d   1       4.424  -6.083  -5.006  0.00  0.00     0.083 H 
ATOM     48  H   LIG d   1       4.376  -5.430  -6.679  0.00  0.00     0.083 H 
ATOM     49  H   LIG d   1       6.693  -6.060  -6.989  0.00  0.00     0.203 HD
BRANCH  40  50
ATOM     50  C   LIG d   1       4.935  -9.938  -6.142  0.00  0.00     0.022 C 
ATOM     51  H   LIG d   1       4.232  -9.903  -6.988  0.00  0.00     0.045 H 
ATOM     52  H   LIG d   1       5.865 -10.432  -6.459  0.00  0.00     0.045 H 
BRANCH  50  53
ATOM     53  C   LIG d   1       4.308 -10.723  -4.988  0.00  0.00     0.057 C 
ATOM     54  H   LIG d   1       3.665 -11.518  -5.394  0.00  0.00     0.057 H 
ATOM     55  H   LIG d   1       5.103 -11.171  -4.375  0.00  0.00     0.057 H 
BRANCH  53  56
ATOM     56  O   LIG d   1       3.525  -9.840  -4.182  0.00  0.00    -0.394 OA
ATOM     57  H   LIG d   1       3.849  -8.801  -4.030  0.00  0.00     0.209 HD
ENDBRANCH  53  56
ENDBRANCH  50  53
ENDBRANCH  40  50
ENDBRANCH  32  35
ENDBRANCH  18  32
BRANCH   1  58
ATOM     58  C   LIG d   1       7.408   0.014  -4.727  0.00  0.00    -0.059 C 
ATOM     59  H   LIG d   1       7.286   0.611  -5.643  0.00  0.00     0.024 H 
ATOM     60  H   LIG d   1       7.729  -1.004  -4.992  0.00  0.00     0.024 H 
ATOM     61  H   LIG d   1       8.167   0.481  -4.082  0.00  0.00     0.024 H 
ENDBRANCH   1  58
TORSDOF 6
ENDMDL
MODEL 2
REMARK VINA RESULT:      -6.1      2.677      3.658
REMARK  6 active torsions:
REMARK  status: ('A' for Active; 'I' for Inactive)
REMARK    1  A    between atoms: C_1  and  C_2 
REMARK    2  A    between atoms: C_19  and  C_21 
REMARK    3  A    between atoms: C_21  and  N_22 
REMARK    4  A    between atoms: N_25  and  C_28 
REMARK    5  A    between atoms: C_28  and  C_29 
REMARK    6  A    between atoms: C_29  and  O_30 
ROOT
ATOM      1  C   LIG d   1       4.501  -0.297  -2.730  0.00  0.00    -0.022 C 
ATOM      2  C   LIG d   1       3.873   0.946  -2.084  0.00  0.00    -0.047 C 
ATOM      3  C   LIG d   1       3.630   2.008  -3.160  0.00  0.00    -0.049 C 
ATOM      4  C   LIG d   1       2.615   1.489  -4.182  0.00  0.00    -0.032 C 
ATOM      5  C   LIG d   1       3.088   0.149  -4.704  0.00  0.00    -0.073 C 
ATOM      6  C   LIG d   1       3.161  -0.089  -5.990  0.00  0.00    -0.099 C 
ATOM      7  C   LIG d   1       3.473  -0.905  -3.693  0.00  0.00    -0.014 C 
ATOM      8  H   LIG d   1       2.568  -1.232  -3.161  0.00  0.00     0.035 H 
ATOM      9  C   LIG d   1       4.078  -2.118  -4.381  0.00  0.00    -0.039 C 
ATOM     10  C   LIG d   1       5.321  -1.745  -5.190  0.00  0.00     0.015 C 
ATOM     11  H   LIG d   1       4.986  -1.185  -6.075  0.00  0.00     0.035 H 
ATOM     12  C   LIG d   1       6.331  -0.983  -4.308  0.00  0.00     0.107 C 
ATOM     13  H   LIG d   1       7.135  -0.479  -4.865  0.00  0.00     0.074 H 
ATOM     14  C   LIG d   1       5.714   0.154  -3.538  0.00  0.00    -0.009 C 
ATOM     15  O   LIG d   1       6.898  -2.023  -3.464  0.00  0.00    -0.461 OA
ATOM     16  C   LIG d   1       7.095  -3.107  -4.248  0.00  0.00     0.316 C 
ATOM     17  O   LIG d   1       7.922  -3.968  -4.057  0.00  0.00    -0.250 OA
ATOM     18  C   LIG d   1       6.115  -3.070  -5.405  0.00  0.00     0.102 C 
ATOM     19  H   LIG d   1       6.629  -3.127  -6.376  0.00  0.00     0.047 H 
ATOM     20  H   LIG d   1       2.916   0.672  -1.616  0.00  0.00     0.027 H 
ATOM     21  H   LIG d   1       4.555   1.347  -1.320  0.00  0.00     0.027 H 
ATOM     22  H   LIG d   1       3.237   2.922  -2.689  0.00  0.00     0.027 H 
ATOM     23  H   LIG d   1       4.577   2.236  -3.670  0.00  0.00     0.027 H 
ATOM     24  H   LIG d   1       1.634   1.376  -3.700  0.00  0.00     0.031 H 
ATOM     25  H   LIG d   1       2.535   2.204  -5.014  0.00  0.00     0.031 H 
ATOM     26  H   LIG d   1       3.507  -1.069  -6.350  0.00  0.00     0.053 H 
ATOM     27  H   LIG d   1       2.876   0.692  -6.711  0.00  0.00     0.053 H 
ATOM     28  H   LIG d   1       4.366  -2.863  -3.625  0.00  0.00     0.028 H 
ATOM     29  H   LIG d   1       3.339  -2.559  -5.065  0.00  0.00     0.028 H 
ATOM     30  H   LIG d   1       5.408   0.931  -4.254  0.00  0.00     0.031 H 
ATOM     31  H   LIG d   1       6.475   0.564  -2.858  0.00  0.00     0.031 H 
ENDROOT
BRANCH  18  32
ATOM     32  C   LIG d   1       5.173  -4.274  -5.348  0.00  0.00    -0.018 C 
ATOM     33  H   LIG d   1       5.624  -5.064  -4.729  0.00  0.00     0.082 H 
ATOM     34  H   LIG d   1       4.213  -3.968  -4.909  0.00  0.00     0.082 H 
BRANCH  32  35
ATOM     35  N   LIG d   1       4.949  -4.786  -6.706  0.00  0.00     0.238 N 
ATOM     36  C   LIG d   1       4.466  -6.174  -6.674  0.00  0.00    -0.019 C 
ATOM     37  C   LIG d   1       4.321  -6.694  -8.106  0.00  0.00     0.039 C 
ATOM     38  H   LIG d   1       5.187  -6.799  -6.127  0.00  0.00     0.083 H 
ATOM     39  H   LIG d   1       3.490  -6.211  -6.169  0.00  0.00     0.083 H 
ATOM     40  N   LIG d   1       3.388  -5.833  -8.846  0.00  0.00    -0.290 N 
ATOM     41  H   LIG d   1       3.933  -7.723  -8.085  0.00  0.00     0.048 H 
ATOM     42  H   LIG d   1       5.303  -6.683  -8.602  0.00  0.00     0.048 H 
ATOM     43  C   LIG d   1       3.872  -4.445  -8.878  0.00  0.00     0.039 C 
ATOM     44  C   LIG d   1       4.016  -3.924  -7.446  0.00  0.00    -0.019 C 
ATOM     45  H   LIG d   1       3.151  -3.818  -9.425  0.00  0.00     0.048 H 
ATOM     46  H   LIG d   1       4.848  -4.407  -9.383  0.00  0.00     0.048 H 
ATOM     47  H   LIG d   1       3.034  -3.935  -6.950  0.00  0.00     0.083 H 
ATOM     48  H   LIG d   1       4.404  -2.896  -7.467  0.00  0.00     0.083 H 
ATOM     49  H   LIG d   1       5.914  -4.774  -7.235  0.00  0.00     0.203 HD
BRANCH  40  50
ATOM     50  C   LIG d   1       3.164  -6.344 -10.205  0.00  0.00     0.022 C 
ATOM     51  H   LIG d   1       3.906  -5.904 -10.889  0.00  0.00     0.045 H 
ATOM     52  H   LIG d   1       3.268  -7.438 -10.206  0.00  0.00     0.045 H 
BRANCH  50  53
ATOM     53  C   LIG d   1       1.756  -5.964 -10.667  0.00  0.00     0.057 C 
ATOM     54  H   LIG d   1       1.756  -4.925 -11.027  0.00  0.00     0.057 H 
ATOM     55  H   LIG d   1       1.444  -6.635 -11.480  0.00  0.00     0.057 H 
BRANCH  53  56
ATOM     56  O   LIG d   1       0.846  -6.088  -9.572  0.00  0.00    -0.394 OA
ATOM     57  H   LIG d   1      -0.186  -6.422  -9.750  0.00  0.00     0.209 HD
ENDBRANCH  53  56
ENDBRANCH  50  53
ENDBRANCH  40  50
ENDBRANCH  32  35
ENDBRANCH  18  32
BRANCH   1  58
ATOM     58  C   LIG d   1       4.912  -1.319  -1.668  0.00  0.00    -0.059 C 
ATOM     59  H   LIG d   1       5.732  -0.907  -1.061  0.00  0.00     0.024 H 
ATOM     60  H   LIG d   1       5.248  -2.244  -2.159  0.00  0.00     0.024 H 
ATOM     61  H   LIG d   1       4.051  -1.540  -1.020  0.00  0.00     0.024 H 
ENDBRANCH   1  58
TORSDOF 6
ENDMDL
MODEL 3
REMARK VINA RESULT:      -6.1      3.897      4.717
REMARK  6 active torsions:
REMARK  status: ('A' for Active; 'I' for Inactive)
REMARK    1  A    between atoms: C_1  and  C_2 
REMARK    2  A    between atoms: C_19  and  C_21 
REMARK    3  A    between atoms: C_21  and  N_22 
REMARK    4  A    between atoms: N_25  and  C_28 
REMARK    5  A    between atoms: C_28  and  C_29 
REMARK    6  A    between atoms: C_29  and  O_30 
ROOT
ATOM      1  C   LIG d   1       5.604   0.332  -3.603  0.00  0.00    -0.022 C 
ATOM      2  C   LIG d   1       4.469   1.312  -3.275  0.00  0.00    -0.047 C 
ATOM      3  C   LIG d   1       3.122   0.640  -3.552  0.00  0.00    -0.049 C 
ATOM      4  C   LIG d   1       2.941  -0.563  -2.620  0.00  0.00    -0.032 C 
ATOM      5  C   LIG d   1       4.146  -1.469  -2.751  0.00  0.00    -0.073 C 
ATOM      6  C   LIG d   1       4.006  -2.753  -2.971  0.00  0.00    -0.099 C 
ATOM      7  C   LIG d   1       5.515  -0.845  -2.622  0.00  0.00    -0.014 C 
ATOM      8  H   LIG d   1       5.656  -0.514  -1.583  0.00  0.00     0.035 H 
ATOM      9  C   LIG d   1       6.602  -1.857  -2.945  0.00  0.00    -0.039 C 
ATOM     10  C   LIG d   1       6.455  -2.411  -4.363  0.00  0.00     0.015 C 
ATOM     11  H   LIG d   1       5.581  -3.078  -4.369  0.00  0.00     0.035 H 
ATOM     12  C   LIG d   1       6.375  -1.261  -5.386  0.00  0.00     0.107 C 
ATOM     13  H   LIG d   1       6.034  -1.563  -6.388  0.00  0.00     0.074 H 
ATOM     14  C   LIG d   1       5.375  -0.198  -5.016  0.00  0.00    -0.009 C 
ATOM     15  O   LIG d   1       7.745  -0.776  -5.460  0.00  0.00    -0.461 OA
ATOM     16  C   LIG d   1       8.550  -1.862  -5.456  0.00  0.00     0.316 C 
ATOM     17  O   LIG d   1       9.656  -1.915  -5.940  0.00  0.00    -0.250 OA
ATOM     18  C   LIG d   1       7.845  -3.003  -4.747  0.00  0.00     0.102 C 
ATOM     19  H   LIG d   1       7.786  -3.901  -5.379  0.00  0.00     0.047 H 
ATOM     20  H   LIG d   1       4.526   1.598  -2.214  0.00  0.00     0.027 H 
ATOM     21  H   LIG d   1       4.567   2.210  -3.903  0.00  0.00     0.027 H 
ATOM     22  H   LIG d   1       2.310   1.361  -3.376  0.00  0.00     0.027 H 
ATOM     23  H   LIG d   1       3.090   0.299  -4.596  0.00  0.00     0.027 H 
ATOM     24  H   LIG d   1       2.850  -0.212  -1.582  0.00  0.00     0.031 H 
ATOM     25  H   LIG d   1       2.030  -1.111  -2.903  0.00  0.00     0.031 H 
ATOM     26  H   LIG d   1       4.894  -3.396  -3.063  0.00  0.00     0.053 H 
ATOM     27  H   LIG d   1       3.000  -3.189  -3.062  0.00  0.00     0.053 H 
ATOM     28  H   LIG d   1       7.588  -1.375  -2.861  0.00  0.00     0.028 H 
ATOM     29  H   LIG d   1       6.545  -2.697  -2.237  0.00  0.00     0.028 H 
ATOM     30  H   LIG d   1       4.367  -0.632  -5.085  0.00  0.00     0.031 H 
ATOM     31  H   LIG d   1       5.468   0.629  -5.736  0.00  0.00     0.031 H 
ENDROOT
BRANCH  18  32
ATOM     32  C   LIG d   1       8.618  -3.414  -3.492  0.00  0.00    -0.018 C 
ATOM     33  H   LIG d   1       9.002  -2.515  -2.988  0.00  0.00     0.082 H 
ATOM     34  H   LIG d   1       7.948  -3.958  -2.811  0.00  0.00     0.082 H 
BRANCH  32  35
ATOM     35  N   LIG d   1       9.741  -4.281  -3.871  0.00  0.00     0.238 N 
ATOM     36  C   LIG d   1      10.994  -3.820  -3.256  0.00  0.00    -0.019 C 
ATOM     37  C   LIG d   1      12.149  -4.701  -3.737  0.00  0.00     0.039 C 
ATOM     38  H   LIG d   1      11.181  -2.776  -3.546  0.00  0.00     0.083 H 
ATOM     39  H   LIG d   1      10.911  -3.888  -2.161  0.00  0.00     0.083 H 
ATOM     40  N   LIG d   1      11.876  -6.100  -3.382  0.00  0.00    -0.290 N 
ATOM     41  H   LIG d   1      13.083  -4.376  -3.256  0.00  0.00     0.048 H 
ATOM     42  H   LIG d   1      12.249  -4.612  -4.829  0.00  0.00     0.048 H 
ATOM     43  C   LIG d   1      10.624  -6.561  -3.998  0.00  0.00     0.039 C 
ATOM     44  C   LIG d   1       9.468  -5.681  -3.516  0.00  0.00    -0.019 C 
ATOM     45  H   LIG d   1      10.435  -7.606  -3.707  0.00  0.00     0.048 H 
ATOM     46  H   LIG d   1      10.705  -6.494  -5.092  0.00  0.00     0.048 H 
ATOM     47  H   LIG d   1       9.368  -5.770  -2.424  0.00  0.00     0.083 H 
ATOM     48  H   LIG d   1       8.534  -6.006  -3.997  0.00  0.00     0.083 H 
ATOM     49  H   LIG d   1       9.858  -4.224  -4.963  0.00  0.00     0.203 HD
BRANCH  40  50
ATOM     50  C   LIG d   1      13.000  -6.968  -3.761  0.00  0.00     0.022 C 
ATOM     51  H   LIG d   1      12.722  -7.561  -4.646  0.00  0.00     0.045 H 
ATOM     52  H   LIG d   1      13.878  -6.349  -3.996  0.00  0.00     0.045 H 
BRANCH  50  53
ATOM     53  C   LIG d   1      13.333  -7.908  -2.601  0.00  0.00     0.057 C 
ATOM     54  H   LIG d   1      12.504  -8.615  -2.452  0.00  0.00     0.057 H 
ATOM     55  H   LIG d   1      14.253  -8.463  -2.832  0.00  0.00     0.057 H 
BRANCH  53  56
ATOM     56  O   LIG d   1      13.525  -7.142  -1.409  0.00  0.00    -0.394 OA
ATOM     57  H   LIG d   1      12.845  -7.274  -0.555  0.00  0.00     0.209 HD
ENDBRANCH  53  56
ENDBRANCH  50  53
ENDBRANCH  40  50
ENDBRANCH  32  35
ENDBRANCH  18  32
BRANCH   1  58
ATOM     58  C   LIG d   1       6.968   1.016  -3.499  0.00  0.00    -0.059 C 
ATOM     59  H   LIG d   1       7.763   0.256  -3.532  0.00  0.00     0.024 H 
ATOM     60  H   LIG d   1       7.029   1.570  -2.551  0.00  0.00     0.024 H 
ATOM     61  H   LIG d   1       7.092   1.714  -4.340  0.00  0.00     0.024 H 
ENDBRANCH   1  58
TORSDOF 6
ENDMDL
MODEL 4
REMARK VINA RESULT:      -6.1      4.970      9.240
REMARK  6 active torsions:
REMARK  status: ('A' for Active; 'I' for Inactive)
REMARK    1  A    between atoms: C_1  and  C_2 
REMARK    2  A    between atoms: C_19  and  C_21 
REMARK    3  A    between atoms: C_21  and  N_22 
REMARK    4  A    between atoms: N_25  and  C_28 
REMARK    5  A    between atoms: C_28  and  C_29 
REMARK    6  A    between atoms: C_29  and  O_30 
ROOT
ATOM      1  C   LIG d   1       5.436  -1.668  -4.492  0.00  0.00    -0.022 C 
ATOM      2  C   LIG d   1       4.215  -2.534  -4.151  0.00  0.00    -0.047 C 
ATOM      3  C   LIG d   1       3.867  -2.361  -2.670  0.00  0.00    -0.049 C 
ATOM      4  C   LIG d   1       3.461  -0.909  -2.398  0.00  0.00    -0.032 C 
ATOM      5  C   LIG d   1       4.552   0.008  -2.909  0.00  0.00    -0.073 C 
ATOM      6  C   LIG d   1       5.058   0.946  -2.149  0.00  0.00    -0.099 C 
ATOM      7  C   LIG d   1       5.038  -0.196  -4.325  0.00  0.00    -0.014 C 
ATOM      8  H   LIG d   1       4.232   0.084  -5.019  0.00  0.00     0.035 H 
ATOM      9  C   LIG d   1       6.238   0.690  -4.616  0.00  0.00    -0.039 C 
ATOM     10  C   LIG d   1       7.397   0.402  -3.661  0.00  0.00     0.015 C 
ATOM     11  H   LIG d   1       7.118   0.797  -2.673  0.00  0.00     0.035 H 
ATOM     12  C   LIG d   1       7.739  -1.101  -3.664  0.00  0.00     0.107 C 
ATOM     13  H   LIG d   1       8.392  -1.424  -2.839  0.00  0.00     0.074 H 
ATOM     14  C   LIG d   1       6.536  -1.989  -3.485  0.00  0.00    -0.009 C 
ATOM     15  O   LIG d   1       8.423  -1.291  -4.934  0.00  0.00    -0.461 OA
ATOM     16  C   LIG d   1       9.241  -0.229  -5.106  0.00  0.00     0.316 C 
ATOM     17  O   LIG d   1      10.257  -0.227  -5.760  0.00  0.00    -0.250 OA
ATOM     18  C   LIG d   1       8.680   0.960  -4.349  0.00  0.00     0.102 C 
ATOM     19  H   LIG d   1       9.414   1.379  -3.646  0.00  0.00     0.047 H 
ATOM     20  H   LIG d   1       3.359  -2.220  -4.768  0.00  0.00     0.027 H 
ATOM     21  H   LIG d   1       4.446  -3.590  -4.353  0.00  0.00     0.027 H 
ATOM     22  H   LIG d   1       3.031  -3.028  -2.410  0.00  0.00     0.027 H 
ATOM     23  H   LIG d   1       4.743  -2.616  -2.057  0.00  0.00     0.027 H 
ATOM     24  H   LIG d   1       2.517  -0.690  -2.916  0.00  0.00     0.031 H 
ATOM     25  H   LIG d   1       3.329  -0.763  -1.316  0.00  0.00     0.031 H 
ATOM     26  H   LIG d   1       5.850   1.603  -2.538  0.00  0.00     0.053 H 
ATOM     27  H   LIG d   1       4.691   1.078  -1.120  0.00  0.00     0.053 H 
ATOM     28  H   LIG d   1       6.584   0.511  -5.645  0.00  0.00     0.028 H 
ATOM     29  H   LIG d   1       5.951   1.746  -4.505  0.00  0.00     0.028 H 
ATOM     30  H   LIG d   1       6.151  -1.848  -2.464  0.00  0.00     0.031 H 
ATOM     31  H   LIG d   1       6.856  -3.034  -3.613  0.00  0.00     0.031 H 
ENDROOT
BRANCH  18  32
ATOM     32  C   LIG d   1       8.320   2.090  -5.316  0.00  0.00    -0.018 C 
ATOM     33  H   LIG d   1       8.817   1.918  -6.282  0.00  0.00     0.082 H 
ATOM     34  H   LIG d   1       7.231   2.114  -5.463  0.00  0.00     0.082 H 
BRANCH  32  35
ATOM     35  N   LIG d   1       8.767   3.373  -4.758  0.00  0.00     0.238 N 
ATOM     36  C   LIG d   1       9.536   3.171  -3.521  0.00  0.00    -0.019 C 
ATOM     37  C   LIG d   1       9.913   4.532  -2.931  0.00  0.00     0.039 C 
ATOM     38  H   LIG d   1       8.925   2.613  -2.797  0.00  0.00     0.083 H 
ATOM     39  H   LIG d   1      10.449   2.602  -3.747  0.00  0.00     0.083 H 
ATOM     40  N   LIG d   1      10.696   5.291  -3.916  0.00  0.00    -0.290 N 
ATOM     41  H   LIG d   1      10.513   4.383  -2.021  0.00  0.00     0.048 H 
ATOM     42  H   LIG d   1       8.999   5.090  -2.680  0.00  0.00     0.048 H 
ATOM     43  C   LIG d   1       9.926   5.493  -5.152  0.00  0.00     0.039 C 
ATOM     44  C   LIG d   1       9.549   4.132  -5.743  0.00  0.00    -0.019 C 
ATOM     45  H   LIG d   1      10.537   6.051  -5.878  0.00  0.00     0.048 H 
ATOM     46  H   LIG d   1       9.012   6.061  -4.927  0.00  0.00     0.048 H 
ATOM     47  H   LIG d   1      10.463   3.574  -5.994  0.00  0.00     0.083 H 
ATOM     48  H   LIG d   1       8.949   4.281  -6.653  0.00  0.00     0.083 H 
ATOM     49  H   LIG d   1       7.871   3.962  -4.508  0.00  0.00     0.203 HD
BRANCH  40  50
ATOM     50  C   LIG d   1      11.142   6.575  -3.358  0.00  0.00     0.022 C 
ATOM     51  H   LIG d   1      12.186   6.485  -3.022  0.00  0.00     0.045 H 
ATOM     52  H   LIG d   1      11.071   7.354  -4.131  0.00  0.00     0.045 H 
BRANCH  50  53
ATOM     53  C   LIG d   1      10.253   6.952  -2.171  0.00  0.00     0.057 C 
ATOM     54  H   LIG d   1       9.661   6.077  -1.866  0.00  0.00     0.057 H 
ATOM     55  H   LIG d   1      10.883   7.280  -1.332  0.00  0.00     0.057 H 
BRANCH  53  56
ATOM     56  O   LIG d   1       9.375   8.013  -2.552  0.00  0.00    -0.394 OA
ATOM     57  H   LIG d   1       9.788   8.966  -2.913  0.00  0.00     0.209 HD
ENDBRANCH  53  56
ENDBRANCH  50  53
ENDBRANCH  40  50
ENDBRANCH  32  35
ENDBRANCH  18  32
BRANCH   1  58
ATOM     58  C   LIG d   1       5.918  -1.936  -5.919  0.00  0.00    -0.059 C 
ATOM     59  H   LIG d   1       5.220  -2.625  -6.419  0.00  0.00     0.024 H 
ATOM     60  H   LIG d   1       6.920  -2.388  -5.889  0.00  0.00     0.024 H 
ATOM     61  H   LIG d   1       5.959  -0.988  -6.475  0.00  0.00     0.024 H 
ENDBRANCH   1  58
TORSDOF 6
ENDMDL
MODEL 5
REMARK VINA RESULT:      -5.9      4.137      5.695
REMARK  6 active torsions:
REMARK  status: ('A' for Active; 'I' for Inactive)
REMARK    1  A    between atoms: C_1  and  C_2 
REMARK    2  A    between atoms: C_19  and  C_21 
REMARK    3  A    between atoms: C_21  and  N_22 
REMARK    4  A    between atoms: N_25  and  C_28 
REMARK    5  A    between atoms: C_28  and  C_29 
REMARK    6  A    between atoms: C_29  and  O_30 
ROOT
ATOM      1  C   LIG d   1       5.271  -0.960  -3.340  0.00  0.00    -0.022 C 
ATOM      2  C   LIG d   1       5.116  -0.459  -1.898  0.00  0.00    -0.047 C 
ATOM      3  C   LIG d   1       4.477   0.932  -1.910  0.00  0.00    -0.049 C 
ATOM      4  C   LIG d   1       3.064   0.849  -2.496  0.00  0.00    -0.032 C 
ATOM      5  C   LIG d   1       3.134   0.166  -3.845  0.00  0.00    -0.073 C 
ATOM      6  C   LIG d   1       2.575   0.700  -4.903  0.00  0.00    -0.099 C 
ATOM      7  C   LIG d   1       3.868  -1.150  -3.932  0.00  0.00    -0.014 C 
ATOM      8  H   LIG d   1       3.298  -1.910  -3.379  0.00  0.00     0.035 H 
ATOM      9  C   LIG d   1       3.985  -1.609  -5.376  0.00  0.00    -0.039 C 
ATOM     10  C   LIG d   1       4.727  -0.584  -6.236  0.00  0.00     0.015 C 
ATOM     11  H   LIG d   1       4.057   0.278  -6.375  0.00  0.00     0.035 H 
ATOM     12  C   LIG d   1       6.086  -0.229  -5.601  0.00  0.00     0.107 C 
ATOM     13  H   LIG d   1       6.569   0.665  -6.024  0.00  0.00     0.074 H 
ATOM     14  C   LIG d   1       5.991   0.121  -4.140  0.00  0.00    -0.009 C 
ATOM     15  O   LIG d   1       6.903  -1.402  -5.870  0.00  0.00    -0.461 OA
ATOM     16  C   LIG d   1       6.627  -1.796  -7.134  0.00  0.00     0.316 C 
ATOM     17  O   LIG d   1       7.379  -2.406  -7.857  0.00  0.00    -0.250 OA
ATOM     18  C   LIG d   1       5.223  -1.350  -7.499  0.00  0.00     0.102 C 
ATOM     19  H   LIG d   1       5.214  -0.746  -8.418  0.00  0.00     0.047 H 
ATOM     20  H   LIG d   1       4.474  -1.153  -1.335  0.00  0.00     0.027 H 
ATOM     21  H   LIG d   1       6.105  -0.404  -1.420  0.00  0.00     0.027 H 
ATOM     22  H   LIG d   1       4.422   1.319  -0.881  0.00  0.00     0.027 H 
ATOM     23  H   LIG d   1       5.086   1.610  -2.524  0.00  0.00     0.027 H 
ATOM     24  H   LIG d   1       2.420   0.270  -1.819  0.00  0.00     0.031 H 
ATOM     25  H   LIG d   1       2.656   1.864  -2.613  0.00  0.00     0.031 H 
ATOM     26  H   LIG d   1       2.636   0.189  -5.875  0.00  0.00     0.053 H 
ATOM     27  H   LIG d   1       2.045   1.660  -4.819  0.00  0.00     0.053 H 
ATOM     28  H   LIG d   1       4.539  -2.559  -5.416  0.00  0.00     0.028 H 
ATOM     29  H   LIG d   1       2.980  -1.754  -5.799  0.00  0.00     0.028 H 
ATOM     30  H   LIG d   1       5.444   1.071  -4.047  0.00  0.00     0.031 H 
ATOM     31  H   LIG d   1       7.012   0.248  -3.748  0.00  0.00     0.031 H 
ENDROOT
BRANCH  18  32
ATOM     32  C   LIG d   1       4.331  -2.562  -7.776  0.00  0.00    -0.018 C 
ATOM     33  H   LIG d   1       4.960  -3.435  -8.007  0.00  0.00     0.082 H 
ATOM     34  H   LIG d   1       3.718  -2.777  -6.888  0.00  0.00     0.082 H 
BRANCH  32  35
ATOM     35  N   LIG d   1       3.454  -2.275  -8.918  0.00  0.00     0.238 N 
ATOM     36  C   LIG d   1       4.074  -1.298  -9.826  0.00  0.00    -0.019 C 
ATOM     37  C   LIG d   1       3.097  -0.966 -10.957  0.00  0.00     0.039 C 
ATOM     38  H   LIG d   1       4.315  -0.381  -9.268  0.00  0.00     0.083 H 
ATOM     39  H   LIG d   1       4.995  -1.724 -10.248  0.00  0.00     0.083 H 
ATOM     40  N   LIG d   1       2.746  -2.199 -11.675  0.00  0.00    -0.290 N 
ATOM     41  H   LIG d   1       3.569  -0.258 -11.653  0.00  0.00     0.048 H 
ATOM     42  H   LIG d   1       2.187  -0.515 -10.536  0.00  0.00     0.048 H 
ATOM     43  C   LIG d   1       2.127  -3.175 -10.767  0.00  0.00     0.039 C 
ATOM     44  C   LIG d   1       3.103  -3.507  -9.636  0.00  0.00    -0.019 C 
ATOM     45  H   LIG d   1       1.885  -4.093 -11.324  0.00  0.00     0.048 H 
ATOM     46  H   LIG d   1       1.205  -2.750 -10.344  0.00  0.00     0.048 H 
ATOM     47  H   LIG d   1       4.014  -3.959 -10.057  0.00  0.00     0.083 H 
ATOM     48  H   LIG d   1       2.631  -4.216  -8.940  0.00  0.00     0.083 H 
ATOM     49  H   LIG d   1       2.525  -1.832  -8.527  0.00  0.00     0.203 HD
BRANCH  40  50
ATOM     50  C   LIG d   1       1.868  -1.912 -12.817  0.00  0.00     0.022 C 
ATOM     51  H   LIG d   1       1.943  -0.845 -13.077  0.00  0.00     0.045 H 
ATOM     52  H   LIG d   1       2.176  -2.521 -13.679  0.00  0.00     0.045 H 
BRANCH  50  53
ATOM     53  C   LIG d   1       0.422  -2.247 -12.446  0.00  0.00     0.057 C 
ATOM     54  H   LIG d   1      -0.075  -2.722 -13.305  0.00  0.00     0.057 H 
ATOM     55  H   LIG d   1       0.414  -2.936 -11.589  0.00  0.00     0.057 H 
BRANCH  53  56
ATOM     56  O   LIG d   1      -0.271  -1.046 -12.099  0.00  0.00    -0.394 OA
ATOM     57  H   LIG d   1      -0.822  -0.984 -11.149  0.00  0.00     0.209 HD
ENDBRANCH  53  56
ENDBRANCH  50  53
ENDBRANCH  40  50
ENDBRANCH  32  35
ENDBRANCH  18  32
BRANCH   1  58
ATOM     58  C   LIG d   1       6.055  -2.273  -3.384  0.00  0.00    -0.059 C 
ATOM     59  H   LIG d   1       6.392  -2.533  -2.369  0.00  0.00     0.024 H 
ATOM     60  H   LIG d   1       6.929  -2.157  -4.041  0.00  0.00     0.024 H 
ATOM     61  H   LIG d   1       5.408  -3.073  -3.771  0.00  0.00     0.024 H 
ENDBRANCH   1  58
TORSDOF 6
ENDMDL
MODEL 6
REMARK VINA RESULT:      -5.7      4.115      5.992
REMARK  6 active torsions:
REMARK  status: ('A' for Active; 'I' for Inactive)
REMARK    1  A    between atoms: C_1  and  C_2 
REMARK    2  A    between atoms: C_19  and  C_21 
REMARK    3  A    between atoms: C_21  and  N_22 
REMARK    4  A    between atoms: N_25  and  C_28 
REMARK    5  A    between atoms: C_28  and  C_29 
REMARK    6  A    between atoms: C_29  and  O_30 
ROOT
ATOM      1  C   LIG d   1       5.222  -0.977  -3.393  0.00  0.00    -0.022 C 
ATOM      2  C   LIG d   1       5.102  -0.467  -1.950  0.00  0.00    -0.047 C 
ATOM      3  C   LIG d   1       4.481   0.932  -1.955  0.00  0.00    -0.049 C 
ATOM      4  C   LIG d   1       3.055   0.864  -2.512  0.00  0.00    -0.032 C 
ATOM      5  C   LIG d   1       3.089   0.175  -3.860  0.00  0.00    -0.073 C 
ATOM      6  C   LIG d   1       2.516   0.712  -4.908  0.00  0.00    -0.099 C 
ATOM      7  C   LIG d   1       3.805  -1.151  -3.956  0.00  0.00    -0.014 C 
ATOM      8  H   LIG d   1       3.237  -1.901  -3.387  0.00  0.00     0.035 H 
ATOM      9  C   LIG d   1       3.886  -1.617  -5.400  0.00  0.00    -0.039 C 
ATOM     10  C   LIG d   1       4.623  -0.605  -6.278  0.00  0.00     0.015 C 
ATOM     11  H   LIG d   1       3.962   0.265  -6.408  0.00  0.00     0.035 H 
ATOM     12  C   LIG d   1       5.999  -0.265  -5.673  0.00  0.00     0.107 C 
ATOM     13  H   LIG d   1       6.485   0.621  -6.110  0.00  0.00     0.074 H 
ATOM     14  C   LIG d   1       5.939   0.092  -4.212  0.00  0.00    -0.009 C 
ATOM     15  O   LIG d   1       6.796  -1.449  -5.954  0.00  0.00    -0.461 OA
ATOM     16  C   LIG d   1       6.489  -1.845  -7.210  0.00  0.00     0.316 C 
ATOM     17  O   LIG d   1       7.218  -2.468  -7.946  0.00  0.00    -0.250 OA
ATOM     18  C   LIG d   1       5.084  -1.383  -7.549  0.00  0.00     0.102 C 
ATOM     19  H   LIG d   1       5.064  -0.782  -8.469  0.00  0.00     0.047 H 
ATOM     20  H   LIG d   1       4.463  -1.151  -1.371  0.00  0.00     0.027 H 
ATOM     21  H   LIG d   1       6.102  -0.423  -1.493  0.00  0.00     0.027 H 
ATOM     22  H   LIG d   1       4.451   1.323  -0.927  0.00  0.00     0.027 H 
ATOM     23  H   LIG d   1       5.086   1.599  -2.584  0.00  0.00     0.027 H 
ATOM     24  H   LIG d   1       2.418   0.297  -1.819  0.00  0.00     0.031 H 
ATOM     25  H   LIG d   1       2.658   1.884  -2.625  0.00  0.00     0.031 H 
ATOM     26  H   LIG d   1       2.550   0.196  -5.879  0.00  0.00     0.053 H 
ATOM     27  H   LIG d   1       1.999   1.679  -4.817  0.00  0.00     0.053 H 
ATOM     28  H   LIG d   1       4.427  -2.575  -5.447  0.00  0.00     0.028 H 
ATOM     29  H   LIG d   1       2.871  -1.751  -5.801  0.00  0.00     0.028 H 
ATOM     30  H   LIG d   1       5.406   1.049  -4.112  0.00  0.00     0.031 H 
ATOM     31  H   LIG d   1       6.969   0.207  -3.842  0.00  0.00     0.031 H 
ENDROOT
BRANCH  18  32
ATOM     32  C   LIG d   1       4.171  -2.584  -7.802  0.00  0.00    -0.018 C 
ATOM     33  H   LIG d   1       4.761  -3.511  -7.748  0.00  0.00     0.082 H 
ATOM     34  H   LIG d   1       3.378  -2.610  -7.040  0.00  0.00     0.082 H 
BRANCH  32  35
ATOM     35  N   LIG d   1       3.565  -2.467  -9.135  0.00  0.00     0.238 N 
ATOM     36  C   LIG d   1       3.425  -1.057  -9.527  0.00  0.00    -0.019 C 
ATOM     37  C   LIG d   1       2.719  -0.977 -10.883  0.00  0.00     0.039 C 
ATOM     38  H   LIG d   1       2.830  -0.524  -8.771  0.00  0.00     0.083 H 
ATOM     39  H   LIG d   1       4.420  -0.597  -9.604  0.00  0.00     0.083 H 
ATOM     40  N   LIG d   1       3.495  -1.724 -11.882  0.00  0.00    -0.290 N 
ATOM     41  H   LIG d   1       2.638   0.076 -11.193  0.00  0.00     0.048 H 
ATOM     42  H   LIG d   1       1.712  -1.412 -10.800  0.00  0.00     0.048 H 
ATOM     43  C   LIG d   1       3.635  -3.133 -11.489  0.00  0.00     0.039 C 
ATOM     44  C   LIG d   1       4.342  -3.214 -10.134  0.00  0.00    -0.019 C 
ATOM     45  H   LIG d   1       4.230  -3.667 -12.245  0.00  0.00     0.048 H 
ATOM     46  H   LIG d   1       2.640  -3.594 -11.413  0.00  0.00     0.048 H 
ATOM     47  H   LIG d   1       5.348  -2.778 -10.217  0.00  0.00     0.083 H 
ATOM     48  H   LIG d   1       4.422  -4.266  -9.824  0.00  0.00     0.083 H 
ATOM     49  H   LIG d   1       2.558  -2.908  -9.087  0.00  0.00     0.203 HD
BRANCH  40  50
ATOM     50  C   LIG d   1       2.888  -1.607 -13.215  0.00  0.00     0.022 C 
ATOM     51  H   LIG d   1       2.534  -2.595 -13.545  0.00  0.00     0.045 H 
ATOM     52  H   LIG d   1       2.040  -0.909 -13.172  0.00  0.00     0.045 H 
BRANCH  50  53
ATOM     53  C   LIG d   1       3.930  -1.082 -14.206  0.00  0.00     0.057 C 
ATOM     54  H   LIG d   1       4.630  -1.890 -14.464  0.00  0.00     0.057 H 
ATOM     55  H   LIG d   1       3.424  -0.728 -15.116  0.00  0.00     0.057 H 
BRANCH  53  56
ATOM     56  O   LIG d   1       4.650  -0.000 -13.610  0.00  0.00    -0.394 OA
ATOM     57  H   LIG d   1       5.707  -0.128 -13.336  0.00  0.00     0.209 HD
ENDBRANCH  53  56
ENDBRANCH  50  53
ENDBRANCH  40  50
ENDBRANCH  32  35
ENDBRANCH  18  32
BRANCH   1  58
ATOM     58  C   LIG d   1       5.988  -2.300  -3.447  0.00  0.00    -0.059 C 
ATOM     59  H   LIG d   1       5.379  -3.095  -2.991  0.00  0.00     0.024 H 
ATOM     60  H   LIG d   1       6.933  -2.199  -2.894  0.00  0.00     0.024 H 
ATOM     61  H   LIG d   1       6.202  -2.557  -4.495  0.00  0.00     0.024 H 
ENDBRANCH   1  58
TORSDOF 6
ENDMDL
MODEL 7
REMARK VINA RESULT:      -5.6      4.477      8.479
REMARK  6 active torsions:
REMARK  status: ('A' for Active; 'I' for Inactive)
REMARK    1  A    between atoms: C_1  and  C_2 
REMARK    2  A    between atoms: C_19  and  C_21 
REMARK    3  A    between atoms: C_21  and  N_22 
REMARK    4  A    between atoms: N_25  and  C_28 
REMARK    5  A    between atoms: C_28  and  C_29 
REMARK    6  A    between atoms: C_29  and  O_30 
ROOT
ATOM      1  C   LIG d   1       5.173  -1.994  -4.024  0.00  0.00    -0.022 C 
ATOM      2  C   LIG d   1       4.128  -2.312  -2.945  0.00  0.00    -0.047 C 
ATOM      3  C   LIG d   1       4.437  -1.502  -1.684  0.00  0.00    -0.049 C 
ATOM      4  C   LIG d   1       4.311  -0.005  -1.985  0.00  0.00    -0.032 C 
ATOM      5  C   LIG d   1       5.172   0.327  -3.185  0.00  0.00    -0.073 C 
ATOM      6  C   LIG d   1       6.027   1.318  -3.149  0.00  0.00    -0.099 C 
ATOM      7  C   LIG d   1       5.012  -0.522  -4.424  0.00  0.00    -0.014 C 
ATOM      8  H   LIG d   1       4.020  -0.329  -4.858  0.00  0.00     0.035 H 
ATOM      9  C   LIG d   1       6.059  -0.161  -5.464  0.00  0.00    -0.039 C 
ATOM     10  C   LIG d   1       7.478  -0.353  -4.925  0.00  0.00     0.015 C 
ATOM     11  H   LIG d   1       7.667   0.447  -4.196  0.00  0.00     0.035 H 
ATOM     12  C   LIG d   1       7.653  -1.776  -4.358  0.00  0.00     0.107 C 
ATOM     13  H   LIG d   1       8.556  -1.916  -3.744  0.00  0.00     0.074 H 
ATOM     14  C   LIG d   1       6.556  -2.180  -3.409  0.00  0.00    -0.009 C 
ATOM     15  O   LIG d   1       7.734  -2.609  -5.548  0.00  0.00    -0.461 OA
ATOM     16  C   LIG d   1       8.500  -1.946  -6.444  0.00  0.00     0.316 C 
ATOM     17  O   LIG d   1       9.153  -2.460  -7.321  0.00  0.00    -0.250 OA
ATOM     18  C   LIG d   1       8.408  -0.456  -6.172  0.00  0.00     0.102 C 
ATOM     19  H   LIG d   1       9.401  -0.008  -6.024  0.00  0.00     0.047 H 
ATOM     20  H   LIG d   1       3.126  -2.048  -3.315  0.00  0.00     0.027 H 
ATOM     21  H   LIG d   1       4.160  -3.386  -2.708  0.00  0.00     0.027 H 
ATOM     22  H   LIG d   1       3.726  -1.775  -0.890  0.00  0.00     0.027 H 
ATOM     23  H   LIG d   1       5.462  -1.721  -1.350  0.00  0.00     0.027 H 
ATOM     24  H   LIG d   1       3.261   0.237  -2.201  0.00  0.00     0.031 H 
ATOM     25  H   LIG d   1       4.649   0.573  -1.112  0.00  0.00     0.031 H 
ATOM     26  H   LIG d   1       6.644   1.545  -4.032  0.00  0.00     0.053 H 
ATOM     27  H   LIG d   1       6.129   1.925  -2.237  0.00  0.00     0.053 H 
ATOM     28  H   LIG d   1       5.935  -0.804  -6.348  0.00  0.00     0.028 H 
ATOM     29  H   LIG d   1       5.939   0.892  -5.757  0.00  0.00     0.028 H 
ATOM     30  H   LIG d   1       6.639  -1.564  -2.502  0.00  0.00     0.031 H 
ATOM     31  H   LIG d   1       6.700  -3.239  -3.145  0.00  0.00     0.031 H 
ENDROOT
BRANCH  18  32
ATOM     32  C   LIG d   1       7.786   0.269  -7.367  0.00  0.00    -0.018 C 
ATOM     33  H   LIG d   1       7.674  -0.435  -8.206  0.00  0.00     0.082 H 
ATOM     34  H   LIG d   1       6.798   0.660  -7.084  0.00  0.00     0.082 H 
BRANCH  32  35
ATOM     35  N   LIG d   1       8.655   1.381  -7.773  0.00  0.00     0.238 N 
ATOM     36  C   LIG d   1       8.113   2.070  -8.953  0.00  0.00    -0.019 C 
ATOM     37  C   LIG d   1       9.085   3.168  -9.390  0.00  0.00     0.039 C 
ATOM     38  H   LIG d   1       7.983   1.346  -9.772  0.00  0.00     0.083 H 
ATOM     39  H   LIG d   1       7.141   2.518  -8.701  0.00  0.00     0.083 H 
ATOM     40  N   LIG d   1       9.288   4.110  -8.280  0.00  0.00    -0.290 N 
ATOM     41  H   LIG d   1       8.668   3.704 -10.255  0.00  0.00     0.048 H 
ATOM     42  H   LIG d   1      10.049   2.716  -9.668  0.00  0.00     0.048 H 
ATOM     43  C   LIG d   1       9.830   3.421  -7.101  0.00  0.00     0.039 C 
ATOM     44  C   LIG d   1       8.857   2.323  -6.663  0.00  0.00    -0.019 C 
ATOM     45  H   LIG d   1       9.960   4.143  -6.281  0.00  0.00     0.048 H 
ATOM     46  H   LIG d   1      10.801   2.971  -7.352  0.00  0.00     0.048 H 
ATOM     47  H   LIG d   1       7.893   2.774  -6.385  0.00  0.00     0.083 H 
ATOM     48  H   LIG d   1       9.274   1.787  -5.798  0.00  0.00     0.083 H 
ATOM     49  H   LIG d   1       9.635   0.961  -8.045  0.00  0.00     0.203 HD
BRANCH  40  50
ATOM     50  C   LIG d   1      10.157   5.222  -8.686  0.00  0.00     0.022 C 
ATOM     51  H   LIG d   1      10.875   5.438  -7.881  0.00  0.00     0.045 H 
ATOM     52  H   LIG d   1      10.704   4.946  -9.599  0.00  0.00     0.045 H 
BRANCH  50  53
ATOM     53  C   LIG d   1       9.305   6.464  -8.957  0.00  0.00     0.057 C 
ATOM     54  H   LIG d   1       8.277   6.157  -9.199  0.00  0.00     0.057 H 
ATOM     55  H   LIG d   1       9.297   7.105  -8.064  0.00  0.00     0.057 H 
BRANCH  53  56
ATOM     56  O   LIG d   1       9.857   7.189 -10.059  0.00  0.00    -0.394 OA
ATOM     57  H   LIG d   1      10.940   7.164 -10.246  0.00  0.00     0.209 HD
ENDBRANCH  53  56
ENDBRANCH  50  53
ENDBRANCH  40  50
ENDBRANCH  32  35
ENDBRANCH  18  32
BRANCH   1  58
ATOM     58  C   LIG d   1       4.999  -2.904  -5.242  0.00  0.00    -0.059 C 
ATOM     59  H   LIG d   1       5.947  -2.957  -5.798  0.00  0.00     0.024 H 
ATOM     60  H   LIG d   1       4.213  -2.497  -5.894  0.00  0.00     0.024 H 
ATOM     61  H   LIG d   1       4.712  -3.912  -4.908  0.00  0.00     0.024 H 
ENDBRANCH   1  58
TORSDOF 6
ENDMDL
MODEL 8
REMARK VINA RESULT:      -5.6      5.121      8.451
REMARK  6 active torsions:
REMARK  status: ('A' for Active; 'I' for Inactive)
REMARK    1  A    between atoms: C_1  and  C_2 
REMARK    2  A    between atoms: C_19  and  C_21 
REMARK    3  A    between atoms: C_21  and  N_22 
REMARK    4  A    between atoms: N_25  and  C_28 
REMARK    5  A    between atoms: C_28  and  C_29 
REMARK    6  A    between atoms: C_29  and  O_30 
ROOT
ATOM      1  C   LIG d   1       1.502  -2.540 -11.989  0.00  0.00    -0.022 C 
ATOM      2  C   LIG d   1       0.998  -3.619 -12.958  0.00  0.00    -0.047 C 
ATOM      3  C   LIG d   1       1.908  -4.847 -12.867  0.00  0.00    -0.049 C 
ATOM      4  C   LIG d   1       1.826  -5.451 -11.462  0.00  0.00    -0.032 C 
ATOM      5  C   LIG d   1       2.114  -4.366 -10.445  0.00  0.00    -0.073 C 
ATOM      6  C   LIG d   1       3.002  -4.544  -9.499  0.00  0.00    -0.099 C 
ATOM      7  C   LIG d   1       1.344  -3.072 -10.559  0.00  0.00    -0.014 C 
ATOM      8  H   LIG d   1       0.289  -3.266 -10.316  0.00  0.00     0.035 H 
ATOM      9  C   LIG d   1       1.871  -2.042  -9.574  0.00  0.00    -0.039 C 
ATOM     10  C   LIG d   1       3.353  -1.745  -9.807  0.00  0.00     0.015 C 
ATOM     11  H   LIG d   1       3.924  -2.623  -9.472  0.00  0.00     0.035 H 
ATOM     12  C   LIG d   1       3.602  -1.358 -11.279  0.00  0.00     0.107 C 
ATOM     13  H   LIG d   1       4.660  -1.362 -11.580  0.00  0.00     0.074 H 
ATOM     14  C   LIG d   1       2.986  -2.318 -12.262  0.00  0.00    -0.009 C 
ATOM     15  O   LIG d   1       3.070  -0.007 -11.369  0.00  0.00    -0.461 OA
ATOM     16  C   LIG d   1       3.440   0.640 -10.240  0.00  0.00     0.316 C 
ATOM     17  O   LIG d   1       3.591   1.835 -10.137  0.00  0.00    -0.250 OA
ATOM     18  C   LIG d   1       3.636  -0.371  -9.127  0.00  0.00     0.102 C 
ATOM     19  H   LIG d   1       4.638  -0.295  -8.679  0.00  0.00     0.047 H 
ATOM     20  H   LIG d   1      -0.030  -3.903 -12.688  0.00  0.00     0.027 H 
ATOM     21  H   LIG d   1       1.013  -3.226 -13.985  0.00  0.00     0.027 H 
ATOM     22  H   LIG d   1       1.585  -5.597 -13.605  0.00  0.00     0.027 H 
ATOM     23  H   LIG d   1       2.945  -4.550 -13.076  0.00  0.00     0.027 H 
ATOM     24  H   LIG d   1       0.818  -5.858 -11.296  0.00  0.00     0.031 H 
ATOM     25  H   LIG d   1       2.568  -6.257 -11.366  0.00  0.00     0.031 H 
ATOM     26  H   LIG d   1       3.197  -3.745  -8.770  0.00  0.00     0.053 H 
ATOM     27  H   LIG d   1       3.553  -5.494  -9.434  0.00  0.00     0.053 H 
ATOM     28  H   LIG d   1       1.308  -1.104  -9.687  0.00  0.00     0.028 H 
ATOM     29  H   LIG d   1       1.751  -2.419  -8.547  0.00  0.00     0.028 H 
ATOM     30  H   LIG d   1       3.519  -3.277 -12.188  0.00  0.00     0.031 H 
ATOM     31  H   LIG d   1       3.115  -1.906 -13.274  0.00  0.00     0.031 H 
ENDROOT
BRANCH  18  32
ATOM     32  C   LIG d   1       2.641  -0.119  -7.993  0.00  0.00    -0.018 C 
ATOM     33  H   LIG d   1       2.371   0.947  -7.972  0.00  0.00     0.082 H 
ATOM     34  H   LIG d   1       1.736  -0.723  -8.158  0.00  0.00     0.082 H 
BRANCH  32  35
ATOM     35  N   LIG d   1       3.252  -0.495  -6.712  0.00  0.00     0.238 N 
ATOM     36  C   LIG d   1       4.716  -0.379  -6.772  0.00  0.00    -0.019 C 
ATOM     37  C   LIG d   1       5.317  -0.855  -5.447  0.00  0.00     0.039 C 
ATOM     38  H   LIG d   1       5.099  -1.002  -7.594  0.00  0.00     0.083 H 
ATOM     39  H   LIG d   1       4.993   0.671  -6.946  0.00  0.00     0.083 H 
ATOM     40  N   LIG d   1       4.773  -0.047  -4.347  0.00  0.00    -0.290 N 
ATOM     41  H   LIG d   1       6.411  -0.741  -5.479  0.00  0.00     0.048 H 
ATOM     42  H   LIG d   1       5.063  -1.912  -5.286  0.00  0.00     0.048 H 
ATOM     43  C   LIG d   1       3.309  -0.163  -4.287  0.00  0.00     0.039 C 
ATOM     44  C   LIG d   1       2.708   0.313  -5.611  0.00  0.00    -0.019 C 
ATOM     45  H   LIG d   1       2.925   0.460  -3.465  0.00  0.00     0.048 H 
ATOM     46  H   LIG d   1       3.031  -1.213  -4.113  0.00  0.00     0.048 H 
ATOM     47  H   LIG d   1       2.962   1.371  -5.772  0.00  0.00     0.083 H 
ATOM     48  H   LIG d   1       1.614   0.200  -5.579  0.00  0.00     0.083 H 
ATOM     49  H   LIG d   1       3.003  -1.549  -6.516  0.00  0.00     0.203 HD
BRANCH  40  50
ATOM     50  C   LIG d   1       5.384  -0.423  -3.065  0.00  0.00     0.022 C 
ATOM     51  H   LIG d   1       5.606  -1.501  -3.067  0.00  0.00     0.045 H 
ATOM     52  H   LIG d   1       6.317   0.142  -2.924  0.00  0.00     0.045 H 
BRANCH  50  53
ATOM     53  C   LIG d   1       4.416  -0.103  -1.925  0.00  0.00     0.057 C 
ATOM     54  H   LIG d   1       3.396  -0.012  -2.325  0.00  0.00     0.057 H 
ATOM     55  H   LIG d   1       4.447  -0.911  -1.179  0.00  0.00     0.057 H 
BRANCH  53  56
ATOM     56  O   LIG d   1       4.797   1.129  -1.308  0.00  0.00    -0.394 OA
ATOM     57  H   LIG d   1       5.558   1.767  -1.779  0.00  0.00     0.209 HD
ENDBRANCH  53  56
ENDBRANCH  50  53
ENDBRANCH  40  50
ENDBRANCH  32  35
ENDBRANCH  18  32
BRANCH   1  58
ATOM     58  C   LIG d   1       0.722  -1.235 -12.167  0.00  0.00    -0.059 C 
ATOM     59  H   LIG d   1       1.389  -0.381 -11.979  0.00  0.00     0.024 H 
ATOM     60  H   LIG d   1      -0.117  -1.210 -11.455  0.00  0.00     0.024 H 
ATOM     61  H   LIG d   1       0.333  -1.178 -13.194  0.00  0.00     0.024 H 
ENDBRANCH   1  58
TORSDOF 6
ENDMDL
MODEL 9
REMARK VINA RESULT:      -5.6      5.587      8.497
REMARK  6 active torsions:
REMARK  status: ('A' for Active; 'I' for Inactive)
REMARK    1  A    between atoms: C_1  and  C_2 
REMARK    2  A    between atoms: C_19  and  C_21 
REMARK    3  A    between atoms: C_21  and  N_22 
REMARK    4  A    between atoms: N_25  and  C_28 
REMARK    5  A    between atoms: C_28  and  C_29 
REMARK    6  A    between atoms: C_29  and  O_30 
ROOT
ATOM      1  C   LIG d   1       2.762   0.262  -9.659  0.00  0.00    -0.022 C 
ATOM      2  C   LIG d   1       1.434  -0.087 -10.345  0.00  0.00    -0.047 C 
ATOM      3  C   LIG d   1       1.567  -1.439 -11.050  0.00  0.00    -0.049 C 
ATOM      4  C   LIG d   1       1.826  -2.540 -10.017  0.00  0.00    -0.032 C 
ATOM      5  C   LIG d   1       3.014  -2.143  -9.167  0.00  0.00    -0.073 C 
ATOM      6  C   LIG d   1       4.013  -2.968  -8.975  0.00  0.00    -0.099 C 
ATOM      7  C   LIG d   1       3.009  -0.766  -8.548  0.00  0.00    -0.014 C 
ATOM      8  H   LIG d   1       2.222  -0.726  -7.781  0.00  0.00     0.035 H 
ATOM      9  C   LIG d   1       4.339  -0.473  -7.872  0.00  0.00    -0.039 C 
ATOM     10  C   LIG d   1       5.503  -0.555  -8.860  0.00  0.00     0.015 C 
ATOM     11  H   LIG d   1       5.656  -1.617  -9.105  0.00  0.00     0.035 H 
ATOM     12  C   LIG d   1       5.236   0.341 -10.086  0.00  0.00     0.107 C 
ATOM     13  H   LIG d   1       5.905   0.157 -10.941  0.00  0.00     0.074 H 
ATOM     14  C   LIG d   1       3.875   0.132 -10.695  0.00  0.00    -0.009 C 
ATOM     15  O   LIG d   1       5.450   1.686  -9.576  0.00  0.00    -0.461 OA
ATOM     16  C   LIG d   1       6.537   1.638  -8.774  0.00  0.00     0.316 C 
ATOM     17  O   LIG d   1       7.276   2.565  -8.540  0.00  0.00    -0.250 OA
ATOM     18  C   LIG d   1       6.682   0.235  -8.214  0.00  0.00     0.102 C 
ATOM     19  H   LIG d   1       7.673  -0.189  -8.430  0.00  0.00     0.047 H 
ATOM     20  H   LIG d   1       0.635  -0.143  -9.591  0.00  0.00     0.027 H 
ATOM     21  H   LIG d   1       1.187   0.689 -11.084  0.00  0.00     0.027 H 
ATOM     22  H   LIG d   1       0.636  -1.662 -11.593  0.00  0.00     0.027 H 
ATOM     23  H   LIG d   1       2.405  -1.402 -11.760  0.00  0.00     0.027 H 
ATOM     24  H   LIG d   1       0.937  -2.662  -9.381  0.00  0.00     0.031 H 
ATOM     25  H   LIG d   1       2.039  -3.486 -10.536  0.00  0.00     0.031 H 
ATOM     26  H   LIG d   1       4.868  -2.662  -8.354  0.00  0.00     0.053 H 
ATOM     27  H   LIG d   1       3.998  -3.967  -9.435  0.00  0.00     0.053 H 
ATOM     28  H   LIG d   1       4.318   0.541  -7.445  0.00  0.00     0.028 H 
ATOM     29  H   LIG d   1       4.512  -1.204  -7.070  0.00  0.00     0.028 H 
ATOM     30  H   LIG d   1       3.845  -0.873 -11.140  0.00  0.00     0.031 H 
ATOM     31  H   LIG d   1       3.731   0.885 -11.484  0.00  0.00     0.031 H 
ENDROOT
BRANCH  18  32
ATOM     32  C   LIG d   1       6.545   0.250  -6.690  0.00  0.00    -0.018 C 
ATOM     33  H   LIG d   1       5.583   0.705  -6.412  0.00  0.00     0.082 H 
ATOM     34  H   LIG d   1       6.586  -0.781  -6.308  0.00  0.00     0.082 H 
BRANCH  32  35
ATOM     35  N   LIG d   1       7.643   1.031  -6.107  0.00  0.00     0.238 N 
ATOM     36  C   LIG d   1       7.434   1.241  -4.667  0.00  0.00    -0.019 C 
ATOM     37  C   LIG d   1       8.556   2.124  -4.116  0.00  0.00     0.039 C 
ATOM     38  H   LIG d   1       6.464   1.734  -4.506  0.00  0.00     0.083 H 
ATOM     39  H   LIG d   1       7.443   0.270  -4.151  0.00  0.00     0.083 H 
ATOM     40  N   LIG d   1       9.853   1.480  -4.368  0.00  0.00    -0.290 N 
ATOM     41  H   LIG d   1       8.418   2.258  -3.033  0.00  0.00     0.048 H 
ATOM     42  H   LIG d   1       8.530   3.105  -4.613  0.00  0.00     0.048 H 
ATOM     43  C   LIG d   1      10.061   1.271  -5.808  0.00  0.00     0.039 C 
ATOM     44  C   LIG d   1       8.940   0.387  -6.360  0.00  0.00    -0.019 C 
ATOM     45  H   LIG d   1      11.031   0.777  -5.970  0.00  0.00     0.048 H 
ATOM     46  H   LIG d   1      10.052   2.241  -6.326  0.00  0.00     0.048 H 
ATOM     47  H   LIG d   1       8.965  -0.593  -5.863  0.00  0.00     0.083 H 
ATOM     48  H   LIG d   1       9.078   0.253  -7.443  0.00  0.00     0.083 H 
ATOM     49  H   LIG d   1       7.652   2.017  -6.596  0.00  0.00     0.203 HD
BRANCH  40  50
ATOM     50  C   LIG d   1      10.951   2.262  -3.786  0.00  0.00     0.022 C 
ATOM     51  H   LIG d   1      11.579   1.606  -3.164  0.00  0.00     0.045 H 
ATOM     52  H   LIG d   1      11.561   2.695  -4.592  0.00  0.00     0.045 H 
BRANCH  50  53
ATOM     53  C   LIG d   1      10.376   3.386  -2.922  0.00  0.00     0.057 C 
ATOM     54  H   LIG d   1      10.483   4.345  -3.450  0.00  0.00     0.057 H 
ATOM     55  H   LIG d   1       9.311   3.190  -2.728  0.00  0.00     0.057 H 
BRANCH  53  56
ATOM     56  O   LIG d   1      11.083   3.443  -1.681  0.00  0.00    -0.394 OA
ATOM     57  H   LIG d   1      12.155   3.200  -1.648  0.00  0.00     0.209 HD
ENDBRANCH  53  56
ENDBRANCH  50  53
ENDBRANCH  40  50
ENDBRANCH  32  35
ENDBRANCH  18  32
BRANCH   1  58
ATOM     58  C   LIG d   1       2.726   1.679  -9.083  0.00  0.00    -0.059 C 
ATOM     59  H   LIG d   1       3.199   2.375  -9.792  0.00  0.00     0.024 H 
ATOM     60  H   LIG d   1       3.272   1.700  -8.128  0.00  0.00     0.024 H 
ATOM     61  H   LIG d   1       1.682   1.980  -8.915  0.00  0.00     0.024 H 
ENDBRANCH   1  58
TORSDOF 6
ENDMDL
MODEL 10
REMARK VINA RESULT:      -5.5     11.210     15.578
REMARK  6 active torsions:
REMARK  status: ('A' for Active; 'I' for Inactive)
REMARK    1  A    between atoms: C_1  and  C_2 
REMARK    2  A    between atoms: C_19  and  C_21 
REMARK    3  A    between atoms: C_21  and  N_22 
REMARK    4  A    between atoms: N_25  and  C_28 
REMARK    5  A    between atoms: C_28  and  C_29 
REMARK    6  A    between atoms: C_29  and  O_30 
ROOT
ATOM      1  C   LIG d   1      10.950   5.451  -2.118  0.00  0.00    -0.022 C 
ATOM      2  C   LIG d   1      10.790   3.954  -2.416  0.00  0.00    -0.047 C 
ATOM      3  C   LIG d   1       9.576   3.744  -3.325  0.00  0.00    -0.049 C 
ATOM      4  C   LIG d   1       9.810   4.434  -4.672  0.00  0.00    -0.032 C 
ATOM      5  C   LIG d   1      10.179   5.881  -4.424  0.00  0.00    -0.073 C 
ATOM      6  C   LIG d   1       9.560   6.853  -5.046  0.00  0.00    -0.099 C 
ATOM      7  C   LIG d   1      11.283   6.166  -3.434  0.00  0.00    -0.014 C 
ATOM      8  H   LIG d   1      12.235   5.811  -3.854  0.00  0.00     0.035 H 
ATOM      9  C   LIG d   1      11.409   7.660  -3.182  0.00  0.00    -0.039 C 
ATOM     10  C   LIG d   1      10.108   8.251  -2.639  0.00  0.00     0.015 C 
ATOM     11  H   LIG d   1       9.381   8.270  -3.464  0.00  0.00     0.035 H 
ATOM     12  C   LIG d   1       9.633   7.466  -1.400  0.00  0.00     0.107 C 
ATOM     13  H   LIG d   1       8.595   7.675  -1.096  0.00  0.00     0.074 H 
ATOM     14  C   LIG d   1       9.610   5.975  -1.609  0.00  0.00    -0.009 C 
ATOM     15  O   LIG d   1      10.547   7.897  -0.353  0.00  0.00    -0.461 OA
ATOM     16  C   LIG d   1      10.723   9.229  -0.505  0.00  0.00     0.316 C 
ATOM     17  O   LIG d   1      11.017  10.001   0.378  0.00  0.00    -0.250 OA
ATOM     18  C   LIG d   1      10.492   9.601  -1.958  0.00  0.00     0.102 C 
ATOM     19  H   LIG d   1       9.727  10.384  -2.061  0.00  0.00     0.047 H 
ATOM     20  H   LIG d   1      11.695   3.582  -2.921  0.00  0.00     0.027 H 
ATOM     21  H   LIG d   1      10.643   3.406  -1.474  0.00  0.00     0.027 H 
ATOM     22  H   LIG d   1       9.423   2.666  -3.489  0.00  0.00     0.027 H 
ATOM     23  H   LIG d   1       8.683   4.172  -2.847  0.00  0.00     0.027 H 
ATOM     24  H   LIG d   1      10.627   3.927  -5.206  0.00  0.00     0.031 H 
ATOM     25  H   LIG d   1       8.891   4.382  -5.274  0.00  0.00     0.031 H 
ATOM     26  H   LIG d   1       9.843   7.898  -4.853  0.00  0.00     0.053 H 
ATOM     27  H   LIG d   1       8.758   6.624  -5.763  0.00  0.00     0.053 H 
ATOM     28  H   LIG d   1      12.206   7.842  -2.446  0.00  0.00     0.028 H 
ATOM     29  H   LIG d   1      11.657   8.172  -4.123  0.00  0.00     0.028 H 
ATOM     30  H   LIG d   1       8.823   5.740  -2.340  0.00  0.00     0.031 H 
ATOM     31  H   LIG d   1       9.371   5.495  -0.648  0.00  0.00     0.031 H 
ENDROOT
BRANCH  18  32
ATOM     32  C   LIG d   1      11.772  10.167  -2.576  0.00  0.00    -0.018 C 
ATOM     33  H   LIG d   1      12.467  10.460  -1.775  0.00  0.00     0.082 H 
ATOM     34  H   LIG d   1      12.243   9.402  -3.209  0.00  0.00     0.082 H 
BRANCH  32  35
ATOM     35  N   LIG d   1      11.443  11.343  -3.392  0.00  0.00     0.238 N 
ATOM     36  C   LIG d   1      11.578  11.044  -4.825  0.00  0.00    -0.019 C 
ATOM     37  C   LIG d   1      11.305  12.313  -5.635  0.00  0.00     0.039 C 
ATOM     38  H   LIG d   1      12.599  10.689  -5.030  0.00  0.00     0.083 H 
ATOM     39  H   LIG d   1      10.854  10.265  -5.106  0.00  0.00     0.083 H 
ATOM     40  N   LIG d   1       9.955  12.807  -5.328  0.00  0.00    -0.290 N 
ATOM     41  H   LIG d   1      11.376  12.085  -6.709  0.00  0.00     0.048 H 
ATOM     42  H   LIG d   1      12.045  13.083  -5.374  0.00  0.00     0.048 H 
ATOM     43  C   LIG d   1       9.821  13.106  -3.896  0.00  0.00     0.039 C 
ATOM     44  C   LIG d   1      10.093  11.836  -3.085  0.00  0.00    -0.019 C 
ATOM     45  H   LIG d   1       8.800  13.461  -3.689  0.00  0.00     0.048 H 
ATOM     46  H   LIG d   1      10.544  13.884  -3.613  0.00  0.00     0.048 H 
ATOM     47  H   LIG d   1       9.353  11.067  -3.346  0.00  0.00     0.083 H 
ATOM     48  H   LIG d   1      10.021  12.064  -2.011  0.00  0.00     0.083 H 
ATOM     49  H   LIG d   1      12.161  12.138  -3.142  0.00  0.00     0.203 HD
BRANCH  40  50
ATOM     50  C   LIG d   1       9.626  13.983  -6.145  0.00  0.00     0.022 C 
ATOM     51  H   LIG d   1       8.574  14.261  -5.980  0.00  0.00     0.045 H 
ATOM     52  H   LIG d   1      10.276  14.822  -5.856  0.00  0.00     0.045 H 
BRANCH  50  53
ATOM     53  C   LIG d   1       9.842  13.655  -7.623  0.00  0.00     0.057 C 
ATOM     54  H   LIG d   1       9.873  14.588  -8.204  0.00  0.00     0.057 H 
ATOM     55  H   LIG d   1      10.792  13.115  -7.743  0.00  0.00     0.057 H 
BRANCH  53  56
ATOM     56  O   LIG d   1       8.767  12.838  -8.092  0.00  0.00    -0.394 OA
ATOM     57  H   LIG d   1       8.538  12.793  -9.166  0.00  0.00     0.209 HD
ENDBRANCH  53  56
ENDBRANCH  50  53
ENDBRANCH  40  50
ENDBRANCH  32  35
ENDBRANCH  18  32
BRANCH   1  58
ATOM     58  C   LIG d   1      12.050   5.690  -1.082  0.00  0.00    -0.059 C 
ATOM     59  H   LIG d   1      12.882   6.237  -1.551  0.00  0.00     0.024 H 
ATOM     60  H   LIG d   1      12.413   4.724  -0.703  0.00  0.00     0.024 H 
ATOM     61  H   LIG d   1      11.645   6.283  -0.249  0.00  0.00     0.024 H 
ENDBRANCH   1  58
TORSDOF 6
ENDMDL
