MODEL 1
REMARK VINA RESULT:      -6.0      0.000      0.000
REMARK  23 active torsions:
REMARK  status: ('A' for Active; 'I' for Inactive)
REMARK    1  A    between atoms: C_1  and  C_2 
REMARK    2  A    between atoms: C_2  and  C_3 
REMARK    3  A    between atoms: C_3  and  C_4 
REMARK    4  A    between atoms: C_4  and  C_5 
REMARK    5  A    between atoms: C_5  and  C_7 
REMARK    6  A    between atoms: C_5  and  C_9 
REMARK    7  A    between atoms: C_7  and  C_8 
REMARK    8  A    between atoms: C_9  and  N_10 
REMARK       I    between atoms: N_10  and  C_11 
REMARK       I    between atoms: C_11  and  N_13 
REMARK       I    between atoms: N_13  and  C_14 
REMARK       I    between atoms: C_14  and  N_16 
REMARK    9  A    between atoms: N_16  and  C_17 
REMARK   10  A    between atoms: C_17  and  C_18 
REMARK   11  A    between atoms: C_18  and  C_19 
REMARK   12  A    between atoms: C_19  and  C_20 
REMARK   13  A    between atoms: C_20  and  C_21 
REMARK   14  A    between atoms: C_21  and  C_22 
REMARK   15  A    between atoms: C_22  and  N_23 
REMARK       I    between atoms: N_23  and  C_24 
REMARK       I    between atoms: C_24  and  N_26 
REMARK       I    between atoms: N_26  and  C_27 
REMARK       I    between atoms: C_27  and  N_29 
REMARK   16  A    between atoms: N_29  and  C_30 
REMARK   17  A    between atoms: C_30  and  C_31 
REMARK   18  A    between atoms: C_31  and  C_33 
REMARK   19  A    between atoms: C_31  and  C_35 
REMARK   20  A    between atoms: C_33  and  C_34 
REMARK   21  A    between atoms: C_35  and  C_36 
REMARK   22  A    between atoms: C_36  and  C_37 
REMARK   23  A    between atoms: C_37  and  C_38 
ROOT
ATOM      1  C   LIG d   1       2.973  -1.215  -2.799  0.00  0.00    -0.050 C 
ATOM      2  H   LIG d   1       2.124  -1.476  -2.169  0.00  0.00     0.027 H 
ATOM      3  H   LIG d   1       2.660  -1.194  -3.843  0.00  0.00     0.027 H 
ENDROOT
BRANCH   1   4
ATOM      4  C   LIG d   1       3.501   0.164  -2.398  0.00  0.00    -0.022 C 
ATOM      5  H   LIG d   1       4.451   0.052  -1.875  0.00  0.00     0.030 H 
ATOM      6  H   LIG d   1       2.781   0.652  -1.741  0.00  0.00     0.030 H 
BRANCH   4   7
ATOM      7  C   LIG d   1       3.707   1.016  -3.652  0.00  0.00     0.065 C 
ATOM      8  H   LIG d   1       4.738   0.920  -3.992  0.00  0.00     0.066 H 
ATOM      9  H   LIG d   1       3.495   2.060  -3.422  0.00  0.00     0.066 H 
BRANCH   7  10
ATOM     10  N   LIG d   1       2.801   0.556  -4.709  0.00  0.00    -0.278 N 
ATOM     11  C   LIG d   1       3.303   0.204  -5.939  0.00  0.00     0.352 C 
ATOM     12  N   LIG d   1       2.450  -0.228  -6.934  0.00  0.00    -0.191 N 
ATOM     13  N   LIG d   1       4.583   0.281  -6.166  0.00  0.00    -0.291 N 
ATOM     14  C   LIG d   1       2.946  -0.942  -8.005  0.00  0.00     0.352 C 
ATOM     15  H   LIG d   1       1.502  -0.030  -6.880  0.00  0.00     0.271 HD
ATOM     16  N   LIG d   1       2.215  -1.036  -9.165  0.00  0.00    -0.278 N 
ATOM     17  N   LIG d   1       4.107  -1.528  -7.916  0.00  0.00    -0.291 N 
ATOM     18  H   LIG d   1       1.351  -0.600  -9.231  0.00  0.00     0.258 HD
ATOM     19  H   LIG d   1       4.577  -1.545  -7.069  0.00  0.00     0.255 HD
ATOM     20  H   LIG d   1       4.499  -1.946  -8.698  0.00  0.00     0.255 HD
ATOM     21  H   LIG d   1       5.192   0.490  -5.441  0.00  0.00     0.255 HD
ATOM     22  H   LIG d   1       4.927   0.127  -7.061  0.00  0.00     0.255 HD
ATOM     23  H   LIG d   1       1.848   0.500  -4.540  0.00  0.00     0.258 HD
BRANCH  16  24
ATOM     24  C   LIG d   1       2.742  -1.794 -10.303  0.00  0.00     0.067 C 
ATOM     25  H   LIG d   1       2.101  -2.655 -10.494  0.00  0.00     0.066 H 
ATOM     26  H   LIG d   1       3.752  -2.136 -10.076  0.00  0.00     0.066 H 
BRANCH  24  27
ATOM     27  C   LIG d   1       2.773  -0.898 -11.542  0.00  0.00    -0.011 C 
ATOM     28  H   LIG d   1       2.248   0.033 -11.330  0.00  0.00     0.033 H 
BRANCH  27  29
ATOM     29  C   LIG d   1       4.225  -0.593 -11.914  0.00  0.00    -0.047 C 
ATOM     30  H   LIG d   1       4.262  -0.163 -12.915  0.00  0.00     0.027 H 
ATOM     31  H   LIG d   1       4.808  -1.513 -11.892  0.00  0.00     0.027 H 
BRANCH  29  32
ATOM     32  C   LIG d   1       4.810   0.405 -10.910  0.00  0.00    -0.053 C 
ATOM     33  H   LIG d   1       5.772   0.764 -11.274  0.00  0.00     0.026 H 
ATOM     34  H   LIG d   1       4.946  -0.087  -9.947  0.00  0.00     0.026 H 
BRANCH  32  35
ATOM     35  C   LIG d   1       3.852   1.587 -10.749  0.00  0.00    -0.056 C 
ATOM     36  H   LIG d   1       2.824   1.224 -10.751  0.00  0.00     0.026 H 
ATOM     37  H   LIG d   1       3.992   2.284 -11.575  0.00  0.00     0.026 H 
BRANCH  35  38
ATOM     38  C   LIG d   1       4.138   2.299  -9.426  0.00  0.00    -0.065 C 
ATOM     39  H   LIG d   1       4.353   1.560  -8.654  0.00  0.00     0.023 H 
ATOM     40  H   LIG d   1       4.997   2.958  -9.547  0.00  0.00     0.023 H 
ATOM     41  H   LIG d   1       3.268   2.886  -9.133  0.00  0.00     0.023 H 
ENDBRANCH  35  38
ENDBRANCH  32  35
ENDBRANCH  29  32
ENDBRANCH  27  29
BRANCH  27  42
ATOM     42  C   LIG d   1       2.089  -1.615 -12.708  0.00  0.00    -0.050 C 
ATOM     43  H   LIG d   1       2.235  -1.040 -13.624  0.00  0.00     0.027 H 
ATOM     44  H   LIG d   1       2.520  -2.608 -12.829  0.00  0.00     0.027 H 
BRANCH  42  45
ATOM     45  C   LIG d   1       0.591  -1.741 -12.419  0.00  0.00    -0.065 C 
ATOM     46  H   LIG d   1       0.322  -2.794 -12.346  0.00  0.00     0.023 H 
ATOM     47  H   LIG d   1       0.359  -1.241 -11.479  0.00  0.00     0.023 H 
ATOM     48  H   LIG d   1       0.025  -1.276 -13.227  0.00  0.00     0.023 H 
ENDBRANCH  42  45
ENDBRANCH  27  42
ENDBRANCH  24  27
ENDBRANCH  16  24
ENDBRANCH   7  10
ENDBRANCH   4   7
ENDBRANCH   1   4
BRANCH   1  49
ATOM     49  C   LIG d   1       4.081  -2.256  -2.621  0.00  0.00    -0.050 C 
ATOM     50  H   LIG d   1       4.912  -1.812  -2.073  0.00  0.00     0.027 H 
ATOM     51  H   LIG d   1       3.691  -3.107  -2.063  0.00  0.00     0.027 H 
BRANCH  49  52
ATOM     52  C   LIG d   1       4.567  -2.724  -3.993  0.00  0.00    -0.022 C 
ATOM     53  H   LIG d   1       4.318  -3.777  -4.128  0.00  0.00     0.030 H 
ATOM     54  H   LIG d   1       4.083  -2.134  -4.772  0.00  0.00     0.030 H 
BRANCH  52  55
ATOM     55  C   LIG d   1       6.084  -2.543  -4.086  0.00  0.00     0.065 C 
ATOM     56  H   LIG d   1       6.577  -3.287  -3.462  0.00  0.00     0.066 H 
ATOM     57  H   LIG d   1       6.402  -2.669  -5.121  0.00  0.00     0.066 H 
BRANCH  55  58
ATOM     58  N   LIG d   1       6.445  -1.200  -3.625  0.00  0.00    -0.278 N 
ATOM     59  C   LIG d   1       7.660  -0.658  -3.973  0.00  0.00     0.352 C 
ATOM     60  N   LIG d   1       8.488  -1.337  -4.712  0.00  0.00    -0.291 N 
ATOM     61  N   LIG d   1       7.999   0.606  -3.538  0.00  0.00    -0.191 N 
ATOM     62  H   LIG d   1       9.384  -1.001  -4.872  0.00  0.00     0.255 HD
ATOM     63  H   LIG d   1       8.210  -2.181  -5.103  0.00  0.00     0.255 HD
ATOM     64  C   LIG d   1       8.925   1.351  -4.239  0.00  0.00     0.352 C 
ATOM     65  H   LIG d   1       7.587   0.972  -2.740  0.00  0.00     0.271 HD
ATOM     66  N   LIG d   1       9.143   1.099  -5.499  0.00  0.00    -0.291 N 
ATOM     67  N   LIG d   1       9.616   2.359  -3.609  0.00  0.00    -0.278 N 
ATOM     68  H   LIG d   1       9.865   1.550  -5.965  0.00  0.00     0.255 HD
ATOM     69  H   LIG d   1       8.585   0.462  -5.971  0.00  0.00     0.255 HD
ATOM     70  H   LIG d   1       9.452   2.546  -2.672  0.00  0.00     0.258 HD
ATOM     71  H   LIG d   1       5.827  -0.694  -3.074  0.00  0.00     0.258 HD
BRANCH  67  72
ATOM     72  C   LIG d   1      10.599   3.149  -4.354  0.00  0.00     0.067 C 
ATOM     73  H   LIG d   1      11.603   2.807  -4.108  0.00  0.00     0.066 H 
ATOM     74  H   LIG d   1      10.426   3.028  -5.424  0.00  0.00     0.066 H 
BRANCH  72  75
ATOM     75  C   LIG d   1      10.456   4.625  -3.978  0.00  0.00    -0.011 C 
ATOM     76  H   LIG d   1      11.427   5.115  -4.057  0.00  0.00     0.033 H 
BRANCH  75  77
ATOM     77  C   LIG d   1       9.465   5.301  -4.928  0.00  0.00    -0.050 C 
ATOM     78  H   LIG d   1       8.452   4.980  -4.683  0.00  0.00     0.027 H 
ATOM     79  H   LIG d   1       9.539   6.383  -4.822  0.00  0.00     0.027 H 
BRANCH  77  80
ATOM     80  C   LIG d   1       9.790   4.906  -6.369  0.00  0.00    -0.065 C 
ATOM     81  H   LIG d   1      10.057   3.850  -6.405  0.00  0.00     0.023 H 
ATOM     82  H   LIG d   1       8.919   5.082  -7.000  0.00  0.00     0.023 H 
ATOM     83  H   LIG d   1      10.626   5.505  -6.731  0.00  0.00     0.023 H 
ENDBRANCH  77  80
ENDBRANCH  75  77
BRANCH  75  84
ATOM     84  C   LIG d   1       9.942   4.738  -2.541  0.00  0.00    -0.047 C 
ATOM     85  H   LIG d   1       8.862   4.886  -2.552  0.00  0.00     0.027 H 
ATOM     86  H   LIG d   1      10.178   3.823  -1.998  0.00  0.00     0.027 H 
BRANCH  84  87
ATOM     87  C   LIG d   1      10.612   5.928  -1.851  0.00  0.00    -0.053 C 
ATOM     88  H   LIG d   1      10.982   5.619  -0.873  0.00  0.00     0.026 H 
ATOM     89  H   LIG d   1      11.444   6.279  -2.460  0.00  0.00     0.026 H 
BRANCH  87  90
ATOM     90  C   LIG d   1       9.594   7.055  -1.678  0.00  0.00    -0.056 C 
ATOM     91  H   LIG d   1       8.632   6.742  -2.083  0.00  0.00     0.026 H 
ATOM     92  H   LIG d   1       9.484   7.288  -0.618  0.00  0.00     0.026 H 
BRANCH  90  93
ATOM     93  C   LIG d   1      10.079   8.300  -2.424  0.00  0.00    -0.065 C 
ATOM     94  H   LIG d   1       9.220   8.860  -2.794  0.00  0.00     0.023 H 
ATOM     95  H   LIG d   1      10.658   8.928  -1.746  0.00  0.00     0.023 H 
ATOM     96  H   LIG d   1      10.706   8.000  -3.263  0.00  0.00     0.023 H 
ENDBRANCH  90  93
ENDBRANCH  87  90
ENDBRANCH  84  87
ENDBRANCH  75  84
ENDBRANCH  72  75
ENDBRANCH  67  72
ENDBRANCH  55  58
ENDBRANCH  52  55
ENDBRANCH  49  52
ENDBRANCH   1  49
TORSDOF 23
ENDMDL
MODEL 2
REMARK VINA RESULT:      -5.8      2.126     10.675
REMARK  23 active torsions:
REMARK  status: ('A' for Active; 'I' for Inactive)
REMARK    1  A    between atoms: C_1  and  C_2 
REMARK    2  A    between atoms: C_2  and  C_3 
REMARK    3  A    between atoms: C_3  and  C_4 
REMARK    4  A    between atoms: C_4  and  C_5 
REMARK    5  A    between atoms: C_5  and  C_7 
REMARK    6  A    between atoms: C_5  and  C_9 
REMARK    7  A    between atoms: C_7  and  C_8 
REMARK    8  A    between atoms: C_9  and  N_10 
REMARK       I    between atoms: N_10  and  C_11 
REMARK       I    between atoms: C_11  and  N_13 
REMARK       I    between atoms: N_13  and  C_14 
REMARK       I    between atoms: C_14  and  N_16 
REMARK    9  A    between atoms: N_16  and  C_17 
REMARK   10  A    between atoms: C_17  and  C_18 
REMARK   11  A    between atoms: C_18  and  C_19 
REMARK   12  A    between atoms: C_19  and  C_20 
REMARK   13  A    between atoms: C_20  and  C_21 
REMARK   14  A    between atoms: C_21  and  C_22 
REMARK   15  A    between atoms: C_22  and  N_23 
REMARK       I    between atoms: N_23  and  C_24 
REMARK       I    between atoms: C_24  and  N_26 
REMARK       I    between atoms: N_26  and  C_27 
REMARK       I    between atoms: C_27  and  N_29 
REMARK   16  A    between atoms: N_29  and  C_30 
REMARK   17  A    between atoms: C_30  and  C_31 
REMARK   18  A    between atoms: C_31  and  C_33 
REMARK   19  A    between atoms: C_31  and  C_35 
REMARK   20  A    between atoms: C_33  and  C_34 
REMARK   21  A    between atoms: C_35  and  C_36 
REMARK   22  A    between atoms: C_36  and  C_37 
REMARK   23  A    between atoms: C_37  and  C_38 
ROOT
ATOM      1  C   LIG d   1       6.845   1.181  -3.575  0.00  0.00    -0.050 C 
ATOM      2  H   LIG d   1       7.468   1.646  -2.812  0.00  0.00     0.027 H 
ATOM      3  H   LIG d   1       6.267   1.948  -4.090  0.00  0.00     0.027 H 
ENDROOT
BRANCH   1   4
ATOM      4  C   LIG d   1       7.734   0.449  -4.583  0.00  0.00    -0.022 C 
ATOM      5  H   LIG d   1       7.298   0.532  -5.579  0.00  0.00     0.030 H 
ATOM      6  H   LIG d   1       7.807  -0.603  -4.307  0.00  0.00     0.030 H 
BRANCH   4   7
ATOM      7  C   LIG d   1       9.129   1.076  -4.582  0.00  0.00     0.065 C 
ATOM      8  H   LIG d   1       9.526   1.081  -5.597  0.00  0.00     0.066 H 
ATOM      9  H   LIG d   1       9.788   0.495  -3.936  0.00  0.00     0.066 H 
BRANCH   7  10
ATOM     10  N   LIG d   1       9.046   2.451  -4.083  0.00  0.00    -0.278 N 
ATOM     11  C   LIG d   1       9.991   2.922  -3.204  0.00  0.00     0.352 C 
ATOM     12  N   LIG d   1       9.913   4.217  -2.734  0.00  0.00    -0.191 N 
ATOM     13  N   LIG d   1      10.960   2.145  -2.812  0.00  0.00    -0.291 N 
ATOM     14  C   LIG d   1      11.026   4.821  -2.188  0.00  0.00     0.352 C 
ATOM     15  H   LIG d   1       9.075   4.703  -2.789  0.00  0.00     0.271 HD
ATOM     16  N   LIG d   1      10.882   5.923  -1.378  0.00  0.00    -0.278 N 
ATOM     17  N   LIG d   1      12.213   4.347  -2.438  0.00  0.00    -0.291 N 
ATOM     18  H   LIG d   1       9.998   6.276  -1.192  0.00  0.00     0.258 HD
ATOM     19  H   LIG d   1      12.324   3.633  -3.085  0.00  0.00     0.255 HD
ATOM     20  H   LIG d   1      12.986   4.709  -1.978  0.00  0.00     0.255 HD
ATOM     21  H   LIG d   1      11.073   1.270  -3.215  0.00  0.00     0.255 HD
ATOM     22  H   LIG d   1      11.571   2.443  -2.119  0.00  0.00     0.255 HD
ATOM     23  H   LIG d   1       8.324   3.030  -4.374  0.00  0.00     0.258 HD
BRANCH  16  24
ATOM     24  C   LIG d   1      12.064   6.564  -0.798  0.00  0.00     0.067 C 
ATOM     25  H   LIG d   1      12.307   7.462  -1.367  0.00  0.00     0.066 H 
ATOM     26  H   LIG d   1      12.906   5.873  -0.831  0.00  0.00     0.066 H 
BRANCH  24  27
ATOM     27  C   LIG d   1      11.775   6.946   0.655  0.00  0.00    -0.011 C 
ATOM     28  H   LIG d   1      12.714   7.156   1.168  0.00  0.00     0.033 H 
BRANCH  27  29
ATOM     29  C   LIG d   1      10.885   8.190   0.689  0.00  0.00    -0.047 C 
ATOM     30  H   LIG d   1      10.834   8.573   1.708  0.00  0.00     0.027 H 
ATOM     31  H   LIG d   1       9.883   7.930   0.347  0.00  0.00     0.027 H 
BRANCH  29  32
ATOM     32  C   LIG d   1      11.475   9.264  -0.229  0.00  0.00    -0.053 C 
ATOM     33  H   LIG d   1      12.191   8.805  -0.911  0.00  0.00     0.026 H 
ATOM     34  H   LIG d   1      11.979  10.020   0.373  0.00  0.00     0.026 H 
BRANCH  32  35
ATOM     35  C   LIG d   1      10.351   9.919  -1.034  0.00  0.00    -0.056 C 
ATOM     36  H   LIG d   1      10.602   9.894  -2.094  0.00  0.00     0.026 H 
ATOM     37  H   LIG d   1      10.229  10.953  -0.714  0.00  0.00     0.026 H 
BRANCH  35  38
ATOM     38  C   LIG d   1       9.046   9.156  -0.801  0.00  0.00    -0.065 C 
ATOM     39  H   LIG d   1       8.202   9.777  -1.103  0.00  0.00     0.023 H 
ATOM     40  H   LIG d   1       9.051   8.239  -1.389  0.00  0.00     0.023 H 
ATOM     41  H   LIG d   1       8.953   8.908   0.257  0.00  0.00     0.023 H 
ENDBRANCH  35  38
ENDBRANCH  32  35
ENDBRANCH  29  32
ENDBRANCH  27  29
BRANCH  27  42
ATOM     42  C   LIG d   1      11.061   5.789   1.355  0.00  0.00    -0.050 C 
ATOM     43  H   LIG d   1      10.072   5.651   0.915  0.00  0.00     0.027 H 
ATOM     44  H   LIG d   1      11.642   4.875   1.235  0.00  0.00     0.027 H 
BRANCH  42  45
ATOM     45  C   LIG d   1      10.914   6.107   2.845  0.00  0.00    -0.065 C 
ATOM     46  H   LIG d   1      10.029   5.607   3.238  0.00  0.00     0.023 H 
ATOM     47  H   LIG d   1      11.796   5.756   3.380  0.00  0.00     0.023 H 
ATOM     48  H   LIG d   1      10.812   7.184   2.979  0.00  0.00     0.023 H 
ENDBRANCH  42  45
ENDBRANCH  27  42
ENDBRANCH  24  27
ENDBRANCH  16  24
ENDBRANCH   7  10
ENDBRANCH   4   7
ENDBRANCH   1   4
BRANCH   1  49
ATOM     49  C   LIG d   1       5.892   0.181  -2.915  0.00  0.00    -0.050 C 
ATOM     50  H   LIG d   1       5.362  -0.378  -3.686  0.00  0.00     0.027 H 
ATOM     51  H   LIG d   1       6.463  -0.508  -2.293  0.00  0.00     0.027 H 
BRANCH  49  52
ATOM     52  C   LIG d   1       4.883   0.935  -2.048  0.00  0.00    -0.022 C 
ATOM     53  H   LIG d   1       5.048   0.688  -0.999  0.00  0.00     0.030 H 
ATOM     54  H   LIG d   1       5.009   2.008  -2.192  0.00  0.00     0.030 H 
BRANCH  52  55
ATOM     55  C   LIG d   1       3.463   0.531  -2.450  0.00  0.00     0.065 C 
ATOM     56  H   LIG d   1       3.021  -0.076  -1.660  0.00  0.00     0.066 H 
ATOM     57  H   LIG d   1       2.858   1.426  -2.599  0.00  0.00     0.066 H 
BRANCH  55  58
ATOM     58  N   LIG d   1       3.507  -0.240  -3.694  0.00  0.00    -0.278 N 
ATOM     59  C   LIG d   1       2.928   0.262  -4.835  0.00  0.00     0.352 C 
ATOM     60  N   LIG d   1       2.340   1.423  -4.809  0.00  0.00    -0.291 N 
ATOM     61  N   LIG d   1       2.970  -0.465  -6.007  0.00  0.00    -0.191 N 
ATOM     62  H   LIG d   1       1.842   1.733  -5.583  0.00  0.00     0.255 HD
ATOM     63  H   LIG d   1       2.398   1.980  -4.017  0.00  0.00     0.255 HD
ATOM     64  C   LIG d   1       2.863   0.179  -7.222  0.00  0.00     0.352 C 
ATOM     65  H   LIG d   1       3.075  -1.429  -5.976  0.00  0.00     0.271 HD
ATOM     66  N   LIG d   1       3.170   1.442  -7.319  0.00  0.00    -0.291 N 
ATOM     67  N   LIG d   1       2.435  -0.511  -8.331  0.00  0.00    -0.278 N 
ATOM     68  H   LIG d   1       2.997   1.921  -8.144  0.00  0.00     0.255 HD
ATOM     69  H   LIG d   1       3.571   1.903  -6.566  0.00  0.00     0.255 HD
ATOM     70  H   LIG d   1       2.207  -1.451  -8.258  0.00  0.00     0.258 HD
ATOM     71  H   LIG d   1       3.946  -1.105  -3.713  0.00  0.00     0.258 HD
BRANCH  67  72
ATOM     72  C   LIG d   1       2.321   0.174  -9.621  0.00  0.00     0.067 C 
ATOM     73  H   LIG d   1       1.375  -0.091 -10.091  0.00  0.00     0.066 H 
ATOM     74  H   LIG d   1       2.361   1.252  -9.464  0.00  0.00     0.066 H 
BRANCH  72  75
ATOM     75  C   LIG d   1       3.478  -0.253 -10.527  0.00  0.00    -0.011 C 
ATOM     76  H   LIG d   1       4.018  -1.078 -10.063  0.00  0.00     0.033 H 
BRANCH  75  77
ATOM     77  C   LIG d   1       2.925  -0.703 -11.881  0.00  0.00    -0.050 C 
ATOM     78  H   LIG d   1       2.538  -1.719 -11.796  0.00  0.00     0.027 H 
ATOM     79  H   LIG d   1       2.122  -0.033 -12.187  0.00  0.00     0.027 H 
BRANCH  77  80
ATOM     80  C   LIG d   1       4.043  -0.670 -12.925  0.00  0.00    -0.065 C 
ATOM     81  H   LIG d   1       4.645  -1.574 -12.841  0.00  0.00     0.023 H 
ATOM     82  H   LIG d   1       3.608  -0.614 -13.922  0.00  0.00     0.023 H 
ATOM     83  H   LIG d   1       4.673   0.204 -12.755  0.00  0.00     0.023 H 
ENDBRANCH  77  80
ENDBRANCH  75  77
BRANCH  75  84
ATOM     84  C   LIG d   1       4.428   0.929 -10.732  0.00  0.00    -0.047 C 
ATOM     85  H   LIG d   1       4.667   1.023 -11.792  0.00  0.00     0.027 H 
ATOM     86  H   LIG d   1       3.950   1.844 -10.385  0.00  0.00     0.027 H 
BRANCH  84  87
ATOM     87  C   LIG d   1       5.715   0.692  -9.938  0.00  0.00    -0.053 C 
ATOM     88  H   LIG d   1       5.588  -0.179  -9.295  0.00  0.00     0.026 H 
ATOM     89  H   LIG d   1       6.540   0.519 -10.627  0.00  0.00     0.026 H 
BRANCH  87  90
ATOM     90  C   LIG d   1       6.016   1.921  -9.080  0.00  0.00    -0.056 C 
ATOM     91  H   LIG d   1       6.267   2.763  -9.725  0.00  0.00     0.026 H 
ATOM     92  H   LIG d   1       5.141   2.171  -8.480  0.00  0.00     0.026 H 
BRANCH  90  93
ATOM     93  C   LIG d   1       7.198   1.620  -8.154  0.00  0.00    -0.065 C 
ATOM     94  H   LIG d   1       8.110   1.543  -8.745  0.00  0.00     0.023 H 
ATOM     95  H   LIG d   1       7.302   2.424  -7.426  0.00  0.00     0.023 H 
ATOM     96  H   LIG d   1       7.021   0.679  -7.634  0.00  0.00     0.023 H 
ENDBRANCH  90  93
ENDBRANCH  87  90
ENDBRANCH  84  87
ENDBRANCH  75  84
ENDBRANCH  72  75
ENDBRANCH  67  72
ENDBRANCH  55  58
ENDBRANCH  52  55
ENDBRANCH  49  52
ENDBRANCH   1  49
TORSDOF 23
ENDMDL
MODEL 3
REMARK VINA RESULT:      -5.8      3.271      9.818
REMARK  23 active torsions:
REMARK  status: ('A' for Active; 'I' for Inactive)
REMARK    1  A    between atoms: C_1  and  C_2 
REMARK    2  A    between atoms: C_2  and  C_3 
REMARK    3  A    between atoms: C_3  and  C_4 
REMARK    4  A    between atoms: C_4  and  C_5 
REMARK    5  A    between atoms: C_5  and  C_7 
REMARK    6  A    between atoms: C_5  and  C_9 
REMARK    7  A    between atoms: C_7  and  C_8 
REMARK    8  A    between atoms: C_9  and  N_10 
REMARK       I    between atoms: N_10  and  C_11 
REMARK       I    between atoms: C_11  and  N_13 
REMARK       I    between atoms: N_13  and  C_14 
REMARK       I    between atoms: C_14  and  N_16 
REMARK    9  A    between atoms: N_16  and  C_17 
REMARK   10  A    between atoms: C_17  and  C_18 
REMARK   11  A    between atoms: C_18  and  C_19 
REMARK   12  A    between atoms: C_19  and  C_20 
REMARK   13  A    between atoms: C_20  and  C_21 
REMARK   14  A    between atoms: C_21  and  C_22 
REMARK   15  A    between atoms: C_22  and  N_23 
REMARK       I    between atoms: N_23  and  C_24 
REMARK       I    between atoms: C_24  and  N_26 
REMARK       I    between atoms: N_26  and  C_27 
REMARK       I    between atoms: C_27  and  N_29 
REMARK   16  A    between atoms: N_29  and  C_30 
REMARK   17  A    between atoms: C_30  and  C_31 
REMARK   18  A    between atoms: C_31  and  C_33 
REMARK   19  A    between atoms: C_31  and  C_35 
REMARK   20  A    between atoms: C_33  and  C_34 
REMARK   21  A    between atoms: C_35  and  C_36 
REMARK   22  A    between atoms: C_36  and  C_37 
REMARK   23  A    between atoms: C_37  and  C_38 
ROOT
ATOM      1  C   LIG d   1       9.823   0.152  -7.554  0.00  0.00    -0.050 C 
ATOM      2  H   LIG d   1      10.142  -0.175  -8.543  0.00  0.00     0.027 H 
ATOM      3  H   LIG d   1      10.306   1.099  -7.310  0.00  0.00     0.027 H 
ENDROOT
BRANCH   1   4
ATOM      4  C   LIG d   1       8.304   0.337  -7.544  0.00  0.00    -0.022 C 
ATOM      5  H   LIG d   1       7.826  -0.558  -7.944  0.00  0.00     0.030 H 
ATOM      6  H   LIG d   1       8.038   1.196  -8.161  0.00  0.00     0.030 H 
BRANCH   4   7
ATOM      7  C   LIG d   1       7.829   0.572  -6.110  0.00  0.00     0.065 C 
ATOM      8  H   LIG d   1       8.327  -0.131  -5.441  0.00  0.00     0.066 H 
ATOM      9  H   LIG d   1       6.751   0.425  -6.054  0.00  0.00     0.066 H 
BRANCH   7  10
ATOM     10  N   LIG d   1       8.156   1.943  -5.705  0.00  0.00    -0.278 N 
ATOM     11  C   LIG d   1       8.776   2.175  -4.501  0.00  0.00     0.352 C 
ATOM     12  N   LIG d   1       9.082   3.465  -4.120  0.00  0.00    -0.191 N 
ATOM     13  N   LIG d   1       9.072   1.177  -3.718  0.00  0.00    -0.291 N 
ATOM     14  C   LIG d   1      10.028   3.689  -3.141  0.00  0.00     0.352 C 
ATOM     15  H   LIG d   1       8.633   4.214  -4.541  0.00  0.00     0.271 HD
ATOM     16  N   LIG d   1      10.063   4.896  -2.483  0.00  0.00    -0.278 N 
ATOM     17  N   LIG d   1      10.887   2.756  -2.840  0.00  0.00    -0.291 N 
ATOM     18  H   LIG d   1       9.424   5.589  -2.708  0.00  0.00     0.258 HD
ATOM     19  H   LIG d   1      10.926   1.944  -3.368  0.00  0.00     0.255 HD
ATOM     20  H   LIG d   1      11.487   2.876  -2.087  0.00  0.00     0.255 HD
ATOM     21  H   LIG d   1       8.947   0.265  -4.026  0.00  0.00     0.255 HD
ATOM     22  H   LIG d   1       9.420   1.345  -2.828  0.00  0.00     0.255 HD
ATOM     23  H   LIG d   1       7.934   2.686  -6.288  0.00  0.00     0.258 HD
BRANCH  16  24
ATOM     24  C   LIG d   1      11.067   5.133  -1.444  0.00  0.00     0.067 C 
ATOM     25  H   LIG d   1      12.041   4.788  -1.793  0.00  0.00     0.066 H 
ATOM     26  H   LIG d   1      10.792   4.588  -0.541  0.00  0.00     0.066 H 
BRANCH  24  27
ATOM     27  C   LIG d   1      11.138   6.630  -1.135  0.00  0.00    -0.011 C 
ATOM     28  H   LIG d   1      11.719   7.132  -1.908  0.00  0.00     0.033 H 
BRANCH  27  29
ATOM     29  C   LIG d   1       9.724   7.211  -1.099  0.00  0.00    -0.047 C 
ATOM     30  H   LIG d   1       9.338   7.168  -0.081  0.00  0.00     0.027 H 
ATOM     31  H   LIG d   1       9.075   6.632  -1.757  0.00  0.00     0.027 H 
BRANCH  29  32
ATOM     32  C   LIG d   1       9.758   8.667  -1.570  0.00  0.00    -0.053 C 
ATOM     33  H   LIG d   1       9.375   8.728  -2.589  0.00  0.00     0.026 H 
ATOM     34  H   LIG d   1      10.785   9.032  -1.546  0.00  0.00     0.026 H 
BRANCH  32  35
ATOM     35  C   LIG d   1       8.890   9.523  -0.647  0.00  0.00    -0.056 C 
ATOM     36  H   LIG d   1       8.348   8.876   0.043  0.00  0.00     0.026 H 
ATOM     37  H   LIG d   1       8.179  10.095  -1.242  0.00  0.00     0.026 H 
BRANCH  35  38
ATOM     38  C   LIG d   1       9.780  10.482   0.146  0.00  0.00    -0.065 C 
ATOM     39  H   LIG d   1       9.952  10.078   1.144  0.00  0.00     0.023 H 
ATOM     40  H   LIG d   1      10.733  10.601  -0.368  0.00  0.00     0.023 H 
ATOM     41  H   LIG d   1       9.287  11.451   0.228  0.00  0.00     0.023 H 
ENDBRANCH  35  38
ENDBRANCH  32  35
ENDBRANCH  29  32
ENDBRANCH  27  29
BRANCH  27  42
ATOM     42  C   LIG d   1      11.810   6.840   0.223  0.00  0.00    -0.050 C 
ATOM     43  H   LIG d   1      12.835   6.468   0.184  0.00  0.00     0.027 H 
ATOM     44  H   LIG d   1      11.818   7.902   0.465  0.00  0.00     0.027 H 
BRANCH  42  45
ATOM     45  C   LIG d   1      11.033   6.077   1.299  0.00  0.00    -0.065 C 
ATOM     46  H   LIG d   1      11.731   5.521   1.925  0.00  0.00     0.023 H 
ATOM     47  H   LIG d   1      10.478   6.784   1.915  0.00  0.00     0.023 H 
ATOM     48  H   LIG d   1      10.338   5.384   0.824  0.00  0.00     0.023 H 
ENDBRANCH  42  45
ENDBRANCH  27  42
ENDBRANCH  24  27
ENDBRANCH  16  24
ENDBRANCH   7  10
ENDBRANCH   4   7
ENDBRANCH   1   4
BRANCH   1  49
ATOM     49  C   LIG d   1      10.215  -0.902  -6.517  0.00  0.00    -0.050 C 
ATOM     50  H   LIG d   1      11.165  -0.625  -6.058  0.00  0.00     0.027 H 
ATOM     51  H   LIG d   1       9.445  -0.961  -5.749  0.00  0.00     0.027 H 
BRANCH  49  52
ATOM     52  C   LIG d   1      10.359  -2.262  -7.201  0.00  0.00    -0.022 C 
ATOM     53  H   LIG d   1       9.809  -2.255  -8.143  0.00  0.00     0.030 H 
ATOM     54  H   LIG d   1      11.412  -2.462  -7.399  0.00  0.00     0.030 H 
BRANCH  52  55
ATOM     55  C   LIG d   1       9.796  -3.355  -6.290  0.00  0.00     0.065 C 
ATOM     56  H   LIG d   1       9.997  -4.332  -6.728  0.00  0.00     0.066 H 
ATOM     57  H   LIG d   1      10.270  -3.291  -5.311  0.00  0.00     0.066 H 
BRANCH  55  58
ATOM     58  N   LIG d   1       8.350  -3.172  -6.144  0.00  0.00    -0.278 N 
ATOM     59  C   LIG d   1       7.811  -2.919  -4.905  0.00  0.00     0.352 C 
ATOM     60  N   LIG d   1       8.585  -2.841  -3.862  0.00  0.00    -0.291 N 
ATOM     61  N   LIG d   1       6.449  -2.747  -4.768  0.00  0.00    -0.191 N 
ATOM     62  H   LIG d   1       8.199  -2.767  -2.975  0.00  0.00     0.255 HD
ATOM     63  H   LIG d   1       9.549  -2.859  -3.970  0.00  0.00     0.255 HD
ATOM     64  C   LIG d   1       5.948  -2.028  -3.703  0.00  0.00     0.352 C 
ATOM     65  H   LIG d   1       5.843  -3.131  -5.421  0.00  0.00     0.271 HD
ATOM     66  N   LIG d   1       6.701  -1.154  -3.096  0.00  0.00    -0.291 N 
ATOM     67  N   LIG d   1       4.656  -2.232  -3.282  0.00  0.00    -0.278 N 
ATOM     68  H   LIG d   1       6.387  -0.724  -2.285  0.00  0.00     0.255 HD
ATOM     69  H   LIG d   1       7.574  -0.933  -3.455  0.00  0.00     0.255 HD
ATOM     70  H   LIG d   1       4.096  -2.882  -3.734  0.00  0.00     0.258 HD
ATOM     71  H   LIG d   1       7.773  -3.229  -6.922  0.00  0.00     0.258 HD
BRANCH  67  72
ATOM     72  C   LIG d   1       4.125  -1.468  -2.150  0.00  0.00     0.067 C 
ATOM     73  H   LIG d   1       3.706  -2.152  -1.414  0.00  0.00     0.066 H 
ATOM     74  H   LIG d   1       4.929  -0.890  -1.693  0.00  0.00     0.066 H 
BRANCH  72  75
ATOM     75  C   LIG d   1       3.031  -0.519  -2.645  0.00  0.00    -0.011 C 
ATOM     76  H   LIG d   1       2.137  -0.647  -2.036  0.00  0.00     0.033 H 
BRANCH  75  77
ATOM     77  C   LIG d   1       3.521   0.926  -2.534  0.00  0.00    -0.050 C 
ATOM     78  H   LIG d   1       3.884   1.262  -3.505  0.00  0.00     0.027 H 
ATOM     79  H   LIG d   1       2.699   1.566  -2.212  0.00  0.00     0.027 H 
BRANCH  77  80
ATOM     80  C   LIG d   1       4.656   1.002  -1.511  0.00  0.00    -0.065 C 
ATOM     81  H   LIG d   1       4.480   1.839  -0.835  0.00  0.00     0.023 H 
ATOM     82  H   LIG d   1       4.693   0.075  -0.939  0.00  0.00     0.023 H 
ATOM     83  H   LIG d   1       5.604   1.147  -2.030  0.00  0.00     0.023 H 
ENDBRANCH  77  80
ENDBRANCH  75  77
BRANCH  75  84
ATOM     84  C   LIG d   1       2.704  -0.835  -4.106  0.00  0.00    -0.047 C 
ATOM     85  H   LIG d   1       3.551  -1.345  -4.565  0.00  0.00     0.027 H 
ATOM     86  H   LIG d   1       1.825  -1.477  -4.152  0.00  0.00     0.027 H 
BRANCH  84  87
ATOM     87  C   LIG d   1       2.425   0.468  -4.859  0.00  0.00    -0.053 C 
ATOM     88  H   LIG d   1       1.364   0.707  -4.788  0.00  0.00     0.026 H 
ATOM     89  H   LIG d   1       3.010   1.274  -4.419  0.00  0.00     0.026 H 
BRANCH  87  90
ATOM     90  C   LIG d   1       2.813   0.299  -6.329  0.00  0.00    -0.056 C 
ATOM     91  H   LIG d   1       2.054  -0.293  -6.840  0.00  0.00     0.026 H 
ATOM     92  H   LIG d   1       2.889   1.279  -6.801  0.00  0.00     0.026 H 
BRANCH  90  93
ATOM     93  C   LIG d   1       4.163  -0.416  -6.421  0.00  0.00    -0.065 C 
ATOM     94  H   LIG d   1       4.967   0.318  -6.374  0.00  0.00     0.023 H 
ATOM     95  H   LIG d   1       4.260  -1.117  -5.592  0.00  0.00     0.023 H 
ATOM     96  H   LIG d   1       4.222  -0.960  -7.364  0.00  0.00     0.023 H 
ENDBRANCH  90  93
ENDBRANCH  87  90
ENDBRANCH  84  87
ENDBRANCH  75  84
ENDBRANCH  72  75
ENDBRANCH  67  72
ENDBRANCH  55  58
ENDBRANCH  52  55
ENDBRANCH  49  52
ENDBRANCH   1  49
TORSDOF 23
ENDMDL
MODEL 4
REMARK VINA RESULT:      -5.8      2.874      7.456
REMARK  23 active torsions:
REMARK  status: ('A' for Active; 'I' for Inactive)
REMARK    1  A    between atoms: C_1  and  C_2 
REMARK    2  A    between atoms: C_2  and  C_3 
REMARK    3  A    between atoms: C_3  and  C_4 
REMARK    4  A    between atoms: C_4  and  C_5 
REMARK    5  A    between atoms: C_5  and  C_7 
REMARK    6  A    between atoms: C_5  and  C_9 
REMARK    7  A    between atoms: C_7  and  C_8 
REMARK    8  A    between atoms: C_9  and  N_10 
REMARK       I    between atoms: N_10  and  C_11 
REMARK       I    between atoms: C_11  and  N_13 
REMARK       I    between atoms: N_13  and  C_14 
REMARK       I    between atoms: C_14  and  N_16 
REMARK    9  A    between atoms: N_16  and  C_17 
REMARK   10  A    between atoms: C_17  and  C_18 
REMARK   11  A    between atoms: C_18  and  C_19 
REMARK   12  A    between atoms: C_19  and  C_20 
REMARK   13  A    between atoms: C_20  and  C_21 
REMARK   14  A    between atoms: C_21  and  C_22 
REMARK   15  A    between atoms: C_22  and  N_23 
REMARK       I    between atoms: N_23  and  C_24 
REMARK       I    between atoms: C_24  and  N_26 
REMARK       I    between atoms: N_26  and  C_27 
REMARK       I    between atoms: C_27  and  N_29 
REMARK   16  A    between atoms: N_29  and  C_30 
REMARK   17  A    between atoms: C_30  and  C_31 
REMARK   18  A    between atoms: C_31  and  C_33 
REMARK   19  A    between atoms: C_31  and  C_35 
REMARK   20  A    between atoms: C_33  and  C_34 
REMARK   21  A    between atoms: C_35  and  C_36 
REMARK   22  A    between atoms: C_36  and  C_37 
REMARK   23  A    between atoms: C_37  and  C_38 
ROOT
ATOM      1  C   LIG d   1       3.034  -0.342  -2.708  0.00  0.00    -0.050 C 
ATOM      2  H   LIG d   1       2.060  -0.397  -2.225  0.00  0.00     0.027 H 
ATOM      3  H   LIG d   1       2.930  -0.583  -3.766  0.00  0.00     0.027 H 
ENDROOT
BRANCH   1   4
ATOM      4  C   LIG d   1       3.598   1.073  -2.560  0.00  0.00    -0.022 C 
ATOM      5  H   LIG d   1       3.091   1.582  -1.740  0.00  0.00     0.030 H 
ATOM      6  H   LIG d   1       3.437   1.627  -3.485  0.00  0.00     0.030 H 
BRANCH   4   7
ATOM      7  C   LIG d   1       5.096   0.996  -2.265  0.00  0.00     0.065 C 
ATOM      8  H   LIG d   1       5.409  -0.049  -2.237  0.00  0.00     0.066 H 
ATOM      9  H   LIG d   1       5.302   1.463  -1.302  0.00  0.00     0.066 H 
BRANCH   7  10
ATOM     10  N   LIG d   1       5.838   1.698  -3.316  0.00  0.00    -0.278 N 
ATOM     11  C   LIG d   1       6.985   1.146  -3.835  0.00  0.00     0.352 C 
ATOM     12  N   LIG d   1       7.683   1.807  -4.823  0.00  0.00    -0.191 N 
ATOM     13  N   LIG d   1       7.413  -0.002  -3.391  0.00  0.00    -0.291 N 
ATOM     14  C   LIG d   1       8.578   1.118  -5.615  0.00  0.00     0.352 C 
ATOM     15  H   LIG d   1       7.545   2.757  -4.962  0.00  0.00     0.271 HD
ATOM     16  N   LIG d   1       9.545   1.800  -6.314  0.00  0.00    -0.278 N 
ATOM     17  N   LIG d   1       8.505  -0.181  -5.701  0.00  0.00    -0.291 N 
ATOM     18  H   LIG d   1       9.599   2.767  -6.250  0.00  0.00     0.258 HD
ATOM     19  H   LIG d   1       7.766  -0.653  -5.289  0.00  0.00     0.255 HD
ATOM     20  H   LIG d   1       9.192  -0.673  -6.177  0.00  0.00     0.255 HD
ATOM     21  H   LIG d   1       6.872  -0.513  -2.769  0.00  0.00     0.255 HD
ATOM     22  H   LIG d   1       8.271  -0.346  -3.686  0.00  0.00     0.255 HD
ATOM     23  H   LIG d   1       5.520   2.553  -3.645  0.00  0.00     0.258 HD
BRANCH  16  24
ATOM     24  C   LIG d   1      10.495   1.068  -7.154  0.00  0.00     0.067 C 
ATOM     25  H   LIG d   1      10.519   0.021  -6.849  0.00  0.00     0.066 H 
ATOM     26  H   LIG d   1      11.489   1.502  -7.044  0.00  0.00     0.066 H 
BRANCH  24  27
ATOM     27  C   LIG d   1      10.058   1.160  -8.618  0.00  0.00    -0.011 C 
ATOM     28  H   LIG d   1       8.973   1.243  -8.667  0.00  0.00     0.033 H 
BRANCH  27  29
ATOM     29  C   LIG d   1      10.695   2.392  -9.263  0.00  0.00    -0.047 C 
ATOM     30  H   LIG d   1      11.498   2.080  -9.930  0.00  0.00     0.027 H 
ATOM     31  H   LIG d   1      11.099   3.042  -8.487  0.00  0.00     0.027 H 
BRANCH  29  32
ATOM     32  C   LIG d   1       9.635   3.153 -10.065  0.00  0.00    -0.053 C 
ATOM     33  H   LIG d   1       9.011   2.443 -10.607  0.00  0.00     0.026 H 
ATOM     34  H   LIG d   1      10.125   3.821 -10.773  0.00  0.00     0.026 H 
BRANCH  32  35
ATOM     35  C   LIG d   1       8.764   3.971  -9.110  0.00  0.00    -0.056 C 
ATOM     36  H   LIG d   1       9.207   3.960  -8.114  0.00  0.00     0.026 H 
ATOM     37  H   LIG d   1       7.764   3.539  -9.068  0.00  0.00     0.026 H 
BRANCH  35  38
ATOM     38  C   LIG d   1       8.674   5.414  -9.611  0.00  0.00    -0.065 C 
ATOM     39  H   LIG d   1       7.700   5.829  -9.352  0.00  0.00     0.023 H 
ATOM     40  H   LIG d   1       9.459   6.009  -9.146  0.00  0.00     0.023 H 
ATOM     41  H   LIG d   1       8.799   5.431 -10.694  0.00  0.00     0.023 H 
ENDBRANCH  35  38
ENDBRANCH  32  35
ENDBRANCH  29  32
ENDBRANCH  27  29
BRANCH  27  42
ATOM     42  C   LIG d   1      10.508  -0.097  -9.365  0.00  0.00    -0.050 C 
ATOM     43  H   LIG d   1      10.549  -0.937  -8.671  0.00  0.00     0.027 H 
ATOM     44  H   LIG d   1       9.800  -0.319 -10.163  0.00  0.00     0.027 H 
BRANCH  42  45
ATOM     45  C   LIG d   1      11.896   0.137  -9.965  0.00  0.00    -0.065 C 
ATOM     46  H   LIG d   1      12.429  -0.812 -10.029  0.00  0.00     0.023 H 
ATOM     47  H   LIG d   1      11.794   0.562 -10.963  0.00  0.00     0.023 H 
ATOM     48  H   LIG d   1      12.456   0.826  -9.331  0.00  0.00     0.023 H 
ENDBRANCH  42  45
ENDBRANCH  27  42
ENDBRANCH  24  27
ENDBRANCH  16  24
ENDBRANCH   7  10
ENDBRANCH   4   7
ENDBRANCH   1   4
BRANCH   1  49
ATOM     49  C   LIG d   1       3.988  -1.342  -2.050  0.00  0.00    -0.050 C 
ATOM     50  H   LIG d   1       5.001  -0.940  -2.063  0.00  0.00     0.027 H 
ATOM     51  H   LIG d   1       3.678  -1.514  -1.020  0.00  0.00     0.027 H 
BRANCH  49  52
ATOM     52  C   LIG d   1       3.954  -2.662  -2.821  0.00  0.00    -0.022 C 
ATOM     53  H   LIG d   1       4.166  -3.487  -2.139  0.00  0.00     0.030 H 
ATOM     54  H   LIG d   1       2.967  -2.802  -3.262  0.00  0.00     0.030 H 
BRANCH  52  55
ATOM     55  C   LIG d   1       5.008  -2.633  -3.930  0.00  0.00     0.065 C 
ATOM     56  H   LIG d   1       5.396  -1.620  -4.035  0.00  0.00     0.066 H 
ATOM     57  H   LIG d   1       5.825  -3.309  -3.673  0.00  0.00     0.066 H 
BRANCH  55  58
ATOM     58  N   LIG d   1       4.401  -3.058  -5.193  0.00  0.00    -0.278 N 
ATOM     59  C   LIG d   1       4.501  -2.258  -6.307  0.00  0.00     0.352 C 
ATOM     60  N   LIG d   1       5.135  -1.123  -6.238  0.00  0.00    -0.291 N 
ATOM     61  N   LIG d   1       3.928  -2.659  -7.496  0.00  0.00    -0.191 N 
ATOM     62  H   LIG d   1       5.117  -0.512  -6.991  0.00  0.00     0.255 HD
ATOM     63  H   LIG d   1       5.624  -0.888  -5.435  0.00  0.00     0.255 HD
ATOM     64  C   LIG d   1       4.410  -2.170  -8.692  0.00  0.00     0.352 C 
ATOM     65  H   LIG d   1       3.188  -3.286  -7.492  0.00  0.00     0.271 HD
ATOM     66  N   LIG d   1       5.629  -1.715  -8.766  0.00  0.00    -0.291 N 
ATOM     67  N   LIG d   1       3.605  -2.162  -9.806  0.00  0.00    -0.278 N 
ATOM     68  H   LIG d   1       5.934  -1.276  -9.576  0.00  0.00     0.255 HD
ATOM     69  H   LIG d   1       6.231  -1.816  -8.013  0.00  0.00     0.255 HD
ATOM     70  H   LIG d   1       2.698  -2.501  -9.751  0.00  0.00     0.258 HD
ATOM     71  H   LIG d   1       3.930  -3.904  -5.244  0.00  0.00     0.258 HD
BRANCH  67  72
ATOM     72  C   LIG d   1       4.117  -1.642 -11.076  0.00  0.00     0.067 C 
ATOM     73  H   LIG d   1       5.159  -1.348 -10.956  0.00  0.00     0.066 H 
ATOM     74  H   LIG d   1       4.043  -2.415 -11.842  0.00  0.00     0.066 H 
BRANCH  72  75
ATOM     75  C   LIG d   1       3.290  -0.425 -11.499  0.00  0.00    -0.011 C 
ATOM     76  H   LIG d   1       3.199  -0.407 -12.584  0.00  0.00     0.033 H 
BRANCH  75  77
ATOM     77  C   LIG d   1       1.897  -0.513 -10.871  0.00  0.00    -0.050 C 
ATOM     78  H   LIG d   1       1.951  -1.088  -9.947  0.00  0.00     0.027 H 
ATOM     79  H   LIG d   1       1.533   0.491 -10.653  0.00  0.00     0.027 H 
BRANCH  77  80
ATOM     80  C   LIG d   1       0.941  -1.202 -11.846  0.00  0.00    -0.065 C 
ATOM     81  H   LIG d   1       1.216  -2.252 -11.943  0.00  0.00     0.023 H 
ATOM     82  H   LIG d   1      -0.079  -1.126 -11.470  0.00  0.00     0.023 H 
ATOM     83  H   LIG d   1       1.005  -0.718 -12.821  0.00  0.00     0.023 H 
ENDBRANCH  77  80
ENDBRANCH  75  77
BRANCH  75  84
ATOM     84  C   LIG d   1       3.984   0.853 -11.022  0.00  0.00    -0.047 C 
ATOM     85  H   LIG d   1       4.988   0.612 -10.672  0.00  0.00     0.027 H 
ATOM     86  H   LIG d   1       4.048   1.562 -11.847  0.00  0.00     0.027 H 
BRANCH  84  87
ATOM     87  C   LIG d   1       3.180   1.473  -9.877  0.00  0.00    -0.053 C 
ATOM     88  H   LIG d   1       2.276   1.932 -10.277  0.00  0.00     0.026 H 
ATOM     89  H   LIG d   1       2.909   0.697  -9.162  0.00  0.00     0.026 H 
BRANCH  87  90
ATOM     90  C   LIG d   1       4.027   2.538  -9.179  0.00  0.00    -0.056 C 
ATOM     91  H   LIG d   1       3.968   3.473  -9.736  0.00  0.00     0.026 H 
ATOM     92  H   LIG d   1       3.654   2.694  -8.166  0.00  0.00     0.026 H 
BRANCH  90  93
ATOM     93  C   LIG d   1       5.484   2.073  -9.119  0.00  0.00    -0.065 C 
ATOM     94  H   LIG d   1       5.520   1.035  -8.788  0.00  0.00     0.023 H 
ATOM     95  H   LIG d   1       5.932   2.155 -10.109  0.00  0.00     0.023 H 
ATOM     96  H   LIG d   1       6.036   2.697  -8.417  0.00  0.00     0.023 H 
ENDBRANCH  90  93
ENDBRANCH  87  90
ENDBRANCH  84  87
ENDBRANCH  75  84
ENDBRANCH  72  75
ENDBRANCH  67  72
ENDBRANCH  55  58
ENDBRANCH  52  55
ENDBRANCH  49  52
ENDBRANCH   1  49
TORSDOF 23
ENDMDL
MODEL 5
REMARK VINA RESULT:      -5.8      3.044      7.909
REMARK  23 active torsions:
REMARK  status: ('A' for Active; 'I' for Inactive)
REMARK    1  A    between atoms: C_1  and  C_2 
REMARK    2  A    between atoms: C_2  and  C_3 
REMARK    3  A    between atoms: C_3  and  C_4 
REMARK    4  A    between atoms: C_4  and  C_5 
REMARK    5  A    between atoms: C_5  and  C_7 
REMARK    6  A    between atoms: C_5  and  C_9 
REMARK    7  A    between atoms: C_7  and  C_8 
REMARK    8  A    between atoms: C_9  and  N_10 
REMARK       I    between atoms: N_10  and  C_11 
REMARK       I    between atoms: C_11  and  N_13 
REMARK       I    between atoms: N_13  and  C_14 
REMARK       I    between atoms: C_14  and  N_16 
REMARK    9  A    between atoms: N_16  and  C_17 
REMARK   10  A    between atoms: C_17  and  C_18 
REMARK   11  A    between atoms: C_18  and  C_19 
REMARK   12  A    between atoms: C_19  and  C_20 
REMARK   13  A    between atoms: C_20  and  C_21 
REMARK   14  A    between atoms: C_21  and  C_22 
REMARK   15  A    between atoms: C_22  and  N_23 
REMARK       I    between atoms: N_23  and  C_24 
REMARK       I    between atoms: C_24  and  N_26 
REMARK       I    between atoms: N_26  and  C_27 
REMARK       I    between atoms: C_27  and  N_29 
REMARK   16  A    between atoms: N_29  and  C_30 
REMARK   17  A    between atoms: C_30  and  C_31 
REMARK   18  A    between atoms: C_31  and  C_33 
REMARK   19  A    between atoms: C_31  and  C_35 
REMARK   20  A    between atoms: C_33  and  C_34 
REMARK   21  A    between atoms: C_35  and  C_36 
REMARK   22  A    between atoms: C_36  and  C_37 
REMARK   23  A    between atoms: C_37  and  C_38 
ROOT
ATOM      1  C   LIG d   1       5.369   1.298  -2.788  0.00  0.00    -0.050 C 
ATOM      2  H   LIG d   1       5.804   2.243  -2.466  0.00  0.00     0.027 H 
ATOM      3  H   LIG d   1       4.707   1.472  -3.636  0.00  0.00     0.027 H 
ENDROOT
BRANCH   1   4
ATOM      4  C   LIG d   1       6.486   0.338  -3.203  0.00  0.00    -0.022 C 
ATOM      5  H   LIG d   1       6.114  -0.344  -3.969  0.00  0.00     0.030 H 
ATOM      6  H   LIG d   1       6.814  -0.235  -2.336  0.00  0.00     0.030 H 
BRANCH   4   7
ATOM      7  C   LIG d   1       7.664   1.138  -3.762  0.00  0.00     0.065 C 
ATOM      8  H   LIG d   1       8.591   0.589  -3.591  0.00  0.00     0.066 H 
ATOM      9  H   LIG d   1       7.717   2.105  -3.262  0.00  0.00     0.066 H 
BRANCH   7  10
ATOM     10  N   LIG d   1       7.478   1.342  -5.201  0.00  0.00    -0.278 N 
ATOM     11  C   LIG d   1       8.386   2.088  -5.913  0.00  0.00     0.352 C 
ATOM     12  N   LIG d   1       8.210   2.281  -7.268  0.00  0.00    -0.191 N 
ATOM     13  N   LIG d   1       9.412   2.616  -5.308  0.00  0.00    -0.291 N 
ATOM     14  C   LIG d   1       9.275   2.671  -8.053  0.00  0.00     0.352 C 
ATOM     15  H   LIG d   1       7.338   2.141  -7.668  0.00  0.00     0.271 HD
ATOM     16  N   LIG d   1       9.049   3.237  -9.285  0.00  0.00    -0.278 N 
ATOM     17  N   LIG d   1      10.494   2.503  -7.626  0.00  0.00    -0.291 N 
ATOM     18  H   LIG d   1       8.141   3.362  -9.603  0.00  0.00     0.258 HD
ATOM     19  H   LIG d   1      10.658   2.017  -6.804  0.00  0.00     0.255 HD
ATOM     20  H   LIG d   1      11.239   2.866  -8.133  0.00  0.00     0.255 HD
ATOM     21  H   LIG d   1       9.590   2.401  -4.379  0.00  0.00     0.255 HD
ATOM     22  H   LIG d   1       9.999   3.222  -5.788  0.00  0.00     0.255 HD
ATOM     23  H   LIG d   1       6.713   0.950  -5.651  0.00  0.00     0.258 HD
BRANCH  16  24
ATOM     24  C   LIG d   1      10.179   3.651 -10.119  0.00  0.00     0.067 C 
ATOM     25  H   LIG d   1      10.214   3.035 -11.018  0.00  0.00     0.066 H 
ATOM     26  H   LIG d   1      11.107   3.531  -9.559  0.00  0.00     0.066 H 
BRANCH  24  27
ATOM     27  C   LIG d   1      10.010   5.120 -10.515  0.00  0.00    -0.011 C 
ATOM     28  H   LIG d   1      10.862   5.694 -10.151  0.00  0.00     0.033 H 
BRANCH  27  29
ATOM     29  C   LIG d   1       9.932   5.231 -12.038  0.00  0.00    -0.047 C 
ATOM     30  H   LIG d   1       8.899   5.101 -12.360  0.00  0.00     0.027 H 
ATOM     31  H   LIG d   1      10.555   4.460 -12.492  0.00  0.00     0.027 H 
BRANCH  29  32
ATOM     32  C   LIG d   1      10.431   6.611 -12.475  0.00  0.00    -0.053 C 
ATOM     33  H   LIG d   1      11.203   6.494 -13.235  0.00  0.00     0.026 H 
ATOM     34  H   LIG d   1      10.846   7.136 -11.614  0.00  0.00     0.026 H 
BRANCH  32  35
ATOM     35  C   LIG d   1       9.265   7.416 -13.052  0.00  0.00    -0.056 C 
ATOM     36  H   LIG d   1       8.388   7.288 -12.419  0.00  0.00     0.026 H 
ATOM     37  H   LIG d   1       9.041   7.062 -14.058  0.00  0.00     0.026 H 
BRANCH  35  38
ATOM     38  C   LIG d   1       9.644   8.897 -13.104  0.00  0.00    -0.065 C 
ATOM     39  H   LIG d   1      10.729   8.997 -13.056  0.00  0.00     0.023 H 
ATOM     40  H   LIG d   1       9.280   9.332 -14.034  0.00  0.00     0.023 H 
ATOM     41  H   LIG d   1       9.195   9.418 -12.258  0.00  0.00     0.023 H 
ENDBRANCH  35  38
ENDBRANCH  32  35
ENDBRANCH  29  32
ENDBRANCH  27  29
BRANCH  27  42
ATOM     42  C   LIG d   1       8.723   5.670  -9.897  0.00  0.00    -0.050 C 
ATOM     43  H   LIG d   1       8.038   5.970 -10.691  0.00  0.00     0.027 H 
ATOM     44  H   LIG d   1       8.255   4.901  -9.285  0.00  0.00     0.027 H 
BRANCH  42  45
ATOM     45  C   LIG d   1       9.055   6.884  -9.026  0.00  0.00    -0.065 C 
ATOM     46  H   LIG d   1      10.112   6.861  -8.758  0.00  0.00     0.023 H 
ATOM     47  H   LIG d   1       8.842   7.797  -9.579  0.00  0.00     0.023 H 
ATOM     48  H   LIG d   1       8.450   6.857  -8.119  0.00  0.00     0.023 H 
ENDBRANCH  42  45
ENDBRANCH  27  42
ENDBRANCH  24  27
ENDBRANCH  16  24
ENDBRANCH   7  10
ENDBRANCH   4   7
ENDBRANCH   1   4
BRANCH   1  49
ATOM     49  C   LIG d   1       4.572   0.684  -1.635  0.00  0.00    -0.050 C 
ATOM     50  H   LIG d   1       5.137   0.784  -0.709  0.00  0.00     0.027 H 
ATOM     51  H   LIG d   1       3.619   1.202  -1.537  0.00  0.00     0.027 H 
BRANCH  49  52
ATOM     52  C   LIG d   1       4.321  -0.798  -1.921  0.00  0.00    -0.022 C 
ATOM     53  H   LIG d   1       5.190  -1.223  -2.422  0.00  0.00     0.030 H 
ATOM     54  H   LIG d   1       4.149  -1.325  -0.982  0.00  0.00     0.030 H 
BRANCH  52  55
ATOM     55  C   LIG d   1       3.091  -0.943  -2.820  0.00  0.00     0.065 C 
ATOM     56  H   LIG d   1       2.310  -1.480  -2.283  0.00  0.00     0.066 H 
ATOM     57  H   LIG d   1       2.726   0.046  -3.098  0.00  0.00     0.066 H 
BRANCH  55  58
ATOM     58  N   LIG d   1       3.455  -1.687  -4.028  0.00  0.00    -0.278 N 
ATOM     59  C   LIG d   1       3.583  -1.028  -5.228  0.00  0.00     0.352 C 
ATOM     60  N   LIG d   1       3.382   0.256  -5.290  0.00  0.00    -0.291 N 
ATOM     61  N   LIG d   1       3.925  -1.730  -6.366  0.00  0.00    -0.191 N 
ATOM     62  H   LIG d   1       3.370   0.705  -6.151  0.00  0.00     0.255 HD
ATOM     63  H   LIG d   1       3.244   0.766  -4.476  0.00  0.00     0.255 HD
ATOM     64  C   LIG d   1       4.531  -1.079  -7.420  0.00  0.00     0.352 C 
ATOM     65  H   LIG d   1       3.740  -2.680  -6.424  0.00  0.00     0.271 HD
ATOM     66  N   LIG d   1       5.181   0.032  -7.214  0.00  0.00    -0.291 N 
ATOM     67  N   LIG d   1       4.451  -1.603  -8.689  0.00  0.00    -0.278 N 
ATOM     68  H   LIG d   1       5.517   0.543  -7.966  0.00  0.00     0.255 HD
ATOM     69  H   LIG d   1       5.328   0.346  -6.308  0.00  0.00     0.255 HD
ATOM     70  H   LIG d   1       3.968  -2.430  -8.842  0.00  0.00     0.258 HD
ATOM     71  H   LIG d   1       3.605  -2.644  -3.981  0.00  0.00     0.258 HD
BRANCH  67  72
ATOM     72  C   LIG d   1       5.094  -0.912  -9.808  0.00  0.00     0.067 C 
ATOM     73  H   LIG d   1       5.402   0.084  -9.492  0.00  0.00     0.066 H 
ATOM     74  H   LIG d   1       5.969  -1.478 -10.130  0.00  0.00     0.066 H 
BRANCH  72  75
ATOM     75  C   LIG d   1       4.106  -0.795 -10.971  0.00  0.00    -0.011 C 
ATOM     76  H   LIG d   1       4.578  -1.150 -11.886  0.00  0.00     0.033 H 
BRANCH  75  77
ATOM     77  C   LIG d   1       2.867  -1.641 -10.673  0.00  0.00    -0.050 C 
ATOM     78  H   LIG d   1       2.834  -2.490 -11.357  0.00  0.00     0.027 H 
ATOM     79  H   LIG d   1       2.911  -2.004  -9.646  0.00  0.00     0.027 H 
BRANCH  77  80
ATOM     80  C   LIG d   1       1.611  -0.789 -10.859  0.00  0.00    -0.065 C 
ATOM     81  H   LIG d   1       1.579  -0.407 -11.879  0.00  0.00     0.023 H 
ATOM     82  H   LIG d   1       0.727  -1.399 -10.672  0.00  0.00     0.023 H 
ATOM     83  H   LIG d   1       1.630   0.045 -10.158  0.00  0.00     0.023 H 
ENDBRANCH  77  80
ENDBRANCH  75  77
BRANCH  75  84
ATOM     84  C   LIG d   1       3.693   0.669 -11.143  0.00  0.00    -0.047 C 
ATOM     85  H   LIG d   1       3.839   0.967 -12.182  0.00  0.00     0.027 H 
ATOM     86  H   LIG d   1       2.644   0.785 -10.876  0.00  0.00     0.027 H 
BRANCH  84  87
ATOM     87  C   LIG d   1       4.553   1.551 -10.235  0.00  0.00    -0.053 C 
ATOM     88  H   LIG d   1       5.005   0.937  -9.456  0.00  0.00     0.026 H 
ATOM     89  H   LIG d   1       5.337   2.025 -10.825  0.00  0.00     0.026 H 
BRANCH  87  90
ATOM     90  C   LIG d   1       3.676   2.627  -9.593  0.00  0.00    -0.056 C 
ATOM     91  H   LIG d   1       4.306   3.339  -9.059  0.00  0.00     0.026 H 
ATOM     92  H   LIG d   1       3.113   3.149 -10.367  0.00  0.00     0.026 H 
BRANCH  90  93
ATOM     93  C   LIG d   1       2.703   1.972  -8.610  0.00  0.00    -0.065 C 
ATOM     94  H   LIG d   1       2.404   2.700  -7.856  0.00  0.00     0.023 H 
ATOM     95  H   LIG d   1       1.822   1.624  -9.149  0.00  0.00     0.023 H 
ATOM     96  H   LIG d   1       3.189   1.126  -8.126  0.00  0.00     0.023 H 
ENDBRANCH  90  93
ENDBRANCH  87  90
ENDBRANCH  84  87
ENDBRANCH  75  84
ENDBRANCH  72  75
ENDBRANCH  67  72
ENDBRANCH  55  58
ENDBRANCH  52  55
ENDBRANCH  49  52
ENDBRANCH   1  49
TORSDOF 23
ENDMDL
MODEL 6
REMARK VINA RESULT:      -5.8      4.074     10.137
REMARK  23 active torsions:
REMARK  status: ('A' for Active; 'I' for Inactive)
REMARK    1  A    between atoms: C_1  and  C_2 
REMARK    2  A    between atoms: C_2  and  C_3 
REMARK    3  A    between atoms: C_3  and  C_4 
REMARK    4  A    between atoms: C_4  and  C_5 
REMARK    5  A    between atoms: C_5  and  C_7 
REMARK    6  A    between atoms: C_5  and  C_9 
REMARK    7  A    between atoms: C_7  and  C_8 
REMARK    8  A    between atoms: C_9  and  N_10 
REMARK       I    between atoms: N_10  and  C_11 
REMARK       I    between atoms: C_11  and  N_13 
REMARK       I    between atoms: N_13  and  C_14 
REMARK       I    between atoms: C_14  and  N_16 
REMARK    9  A    between atoms: N_16  and  C_17 
REMARK   10  A    between atoms: C_17  and  C_18 
REMARK   11  A    between atoms: C_18  and  C_19 
REMARK   12  A    between atoms: C_19  and  C_20 
REMARK   13  A    between atoms: C_20  and  C_21 
REMARK   14  A    between atoms: C_21  and  C_22 
REMARK   15  A    between atoms: C_22  and  N_23 
REMARK       I    between atoms: N_23  and  C_24 
REMARK       I    between atoms: C_24  and  N_26 
REMARK       I    between atoms: N_26  and  C_27 
REMARK       I    between atoms: C_27  and  N_29 
REMARK   16  A    between atoms: N_29  and  C_30 
REMARK   17  A    between atoms: C_30  and  C_31 
REMARK   18  A    between atoms: C_31  and  C_33 
REMARK   19  A    between atoms: C_31  and  C_35 
REMARK   20  A    between atoms: C_33  and  C_34 
REMARK   21  A    between atoms: C_35  and  C_36 
REMARK   22  A    between atoms: C_36  and  C_37 
REMARK   23  A    between atoms: C_37  and  C_38 
ROOT
ATOM      1  C   LIG d   1       4.472  -0.456 -12.125  0.00  0.00    -0.050 C 
ATOM      2  H   LIG d   1       4.229   0.062 -13.052  0.00  0.00     0.027 H 
ATOM      3  H   LIG d   1       5.354  -1.078 -12.276  0.00  0.00     0.027 H 
ENDROOT
BRANCH   1   4
ATOM      4  C   LIG d   1       4.753   0.570 -11.026  0.00  0.00    -0.022 C 
ATOM      5  H   LIG d   1       5.488   1.293 -11.383  0.00  0.00     0.030 H 
ATOM      6  H   LIG d   1       5.144   0.061 -10.145  0.00  0.00     0.030 H 
BRANCH   4   7
ATOM      7  C   LIG d   1       3.457   1.297 -10.664  0.00  0.00     0.065 C 
ATOM      8  H   LIG d   1       2.610   0.626 -10.811  0.00  0.00     0.066 H 
ATOM      9  H   LIG d   1       3.341   2.174 -11.301  0.00  0.00     0.066 H 
BRANCH   7  10
ATOM     10  N   LIG d   1       3.508   1.717  -9.261  0.00  0.00    -0.278 N 
ATOM     11  C   LIG d   1       3.041   0.880  -8.276  0.00  0.00     0.352 C 
ATOM     12  N   LIG d   1       3.089   1.275  -6.955  0.00  0.00    -0.191 N 
ATOM     13  N   LIG d   1       2.552  -0.286  -8.589  0.00  0.00    -0.291 N 
ATOM     14  C   LIG d   1       3.003   0.335  -5.950  0.00  0.00     0.352 C 
ATOM     15  H   LIG d   1       3.183   2.215  -6.733  0.00  0.00     0.271 HD
ATOM     16  N   LIG d   1       2.657   0.719  -4.676  0.00  0.00    -0.278 N 
ATOM     17  N   LIG d   1       3.249  -0.919  -6.208  0.00  0.00    -0.291 N 
ATOM     18  H   LIG d   1       2.473   1.652  -4.484  0.00  0.00     0.258 HD
ATOM     19  H   LIG d   1       3.587  -1.177  -7.079  0.00  0.00     0.255 HD
ATOM     20  H   LIG d   1       3.094  -1.593  -5.527  0.00  0.00     0.255 HD
ATOM     21  H   LIG d   1       2.607  -0.605  -9.504  0.00  0.00     0.255 HD
ATOM     22  H   LIG d   1       2.133  -0.836  -7.908  0.00  0.00     0.255 HD
ATOM     23  H   LIG d   1       3.872   2.585  -9.027  0.00  0.00     0.258 HD
BRANCH  16  24
ATOM     24  C   LIG d   1       2.566  -0.280  -3.609  0.00  0.00     0.067 C 
ATOM     25  H   LIG d   1       2.959  -1.232  -3.967  0.00  0.00     0.066 H 
ATOM     26  H   LIG d   1       1.523  -0.404  -3.315  0.00  0.00     0.066 H 
BRANCH  24  27
ATOM     27  C   LIG d   1       3.383   0.186  -2.402  0.00  0.00    -0.011 C 
ATOM     28  H   LIG d   1       2.712   0.397  -1.570  0.00  0.00     0.033 H 
BRANCH  27  29
ATOM     29  C   LIG d   1       4.368  -0.913  -1.999  0.00  0.00    -0.047 C 
ATOM     30  H   LIG d   1       4.246  -1.140  -0.940  0.00  0.00     0.027 H 
ATOM     31  H   LIG d   1       5.388  -0.573  -2.183  0.00  0.00     0.027 H 
BRANCH  29  32
ATOM     32  C   LIG d   1       4.094  -2.172  -2.825  0.00  0.00    -0.053 C 
ATOM     33  H   LIG d   1       3.231  -2.003  -3.469  0.00  0.00     0.026 H 
ATOM     34  H   LIG d   1       3.889  -3.008  -2.156  0.00  0.00     0.026 H 
BRANCH  32  35
ATOM     35  C   LIG d   1       5.317  -2.494  -3.685  0.00  0.00    -0.056 C 
ATOM     36  H   LIG d   1       6.164  -2.725  -3.040  0.00  0.00     0.026 H 
ATOM     37  H   LIG d   1       5.560  -1.635  -4.310  0.00  0.00     0.026 H 
BRANCH  35  38
ATOM     38  C   LIG d   1       5.011  -3.701  -4.575  0.00  0.00    -0.065 C 
ATOM     39  H   LIG d   1       4.015  -4.079  -4.345  0.00  0.00     0.023 H 
ATOM     40  H   LIG d   1       5.053  -3.400  -5.621  0.00  0.00     0.023 H 
ATOM     41  H   LIG d   1       5.747  -4.484  -4.393  0.00  0.00     0.023 H 
ENDBRANCH  35  38
ENDBRANCH  32  35
ENDBRANCH  29  32
ENDBRANCH  27  29
BRANCH  27  42
ATOM     42  C   LIG d   1       4.156   1.455  -2.768  0.00  0.00    -0.050 C 
ATOM     43  H   LIG d   1       3.821   1.817  -3.741  0.00  0.00     0.027 H 
ATOM     44  H   LIG d   1       3.976   2.220  -2.014  0.00  0.00     0.027 H 
BRANCH  42  45
ATOM     45  C   LIG d   1       5.652   1.140  -2.828  0.00  0.00    -0.065 C 
ATOM     46  H   LIG d   1       5.796   0.129  -3.210  0.00  0.00     0.023 H 
ATOM     47  H   LIG d   1       6.146   1.851  -3.490  0.00  0.00     0.023 H 
ATOM     48  H   LIG d   1       6.081   1.216  -1.828  0.00  0.00     0.023 H 
ENDBRANCH  42  45
ENDBRANCH  27  42
ENDBRANCH  24  27
ENDBRANCH  16  24
ENDBRANCH   7  10
ENDBRANCH   4   7
ENDBRANCH   1   4
BRANCH   1  49
ATOM     49  C   LIG d   1       3.291  -1.338 -11.710  0.00  0.00    -0.050 C 
ATOM     50  H   LIG d   1       2.744  -0.853 -10.901  0.00  0.00     0.027 H 
ATOM     51  H   LIG d   1       2.628  -1.482 -12.562  0.00  0.00     0.027 H 
BRANCH  49  52
ATOM     52  C   LIG d   1       3.811  -2.694 -11.231  0.00  0.00    -0.022 C 
ATOM     53  H   LIG d   1       3.989  -3.339 -12.093  0.00  0.00     0.030 H 
ATOM     54  H   LIG d   1       4.744  -2.555 -10.685  0.00  0.00     0.030 H 
BRANCH  52  55
ATOM     55  C   LIG d   1       2.774  -3.344 -10.313  0.00  0.00     0.065 C 
ATOM     56  H   LIG d   1       1.979  -2.629 -10.101  0.00  0.00     0.066 H 
ATOM     57  H   LIG d   1       2.352  -4.221 -10.805  0.00  0.00     0.066 H 
BRANCH  55  58
ATOM     58  N   LIG d   1       3.415  -3.748  -9.060  0.00  0.00    -0.278 N 
ATOM     59  C   LIG d   1       3.410  -5.070  -8.680  0.00  0.00     0.352 C 
ATOM     60  N   LIG d   1       2.835  -5.961  -9.435  0.00  0.00    -0.291 N 
ATOM     61  N   LIG d   1       4.014  -5.450  -7.500  0.00  0.00    -0.191 N 
ATOM     62  H   LIG d   1       2.739  -6.874  -9.121  0.00  0.00     0.255 HD
ATOM     63  H   LIG d   1       2.501  -5.713 -10.311  0.00  0.00     0.255 HD
ATOM     64  C   LIG d   1       4.457  -6.746  -7.339  0.00  0.00     0.352 C 
ATOM     65  H   LIG d   1       4.128  -4.806  -6.784  0.00  0.00     0.271 HD
ATOM     66  N   LIG d   1       4.728  -7.477  -8.383  0.00  0.00    -0.291 N 
ATOM     67  N   LIG d   1       4.613  -7.267  -6.076  0.00  0.00    -0.278 N 
ATOM     68  H   LIG d   1       4.938  -8.417  -8.275  0.00  0.00     0.255 HD
ATOM     69  H   LIG d   1       4.720  -7.080  -9.268  0.00  0.00     0.255 HD
ATOM     70  H   LIG d   1       4.412  -6.723  -5.299  0.00  0.00     0.258 HD
ATOM     71  H   LIG d   1       3.844  -3.084  -8.498  0.00  0.00     0.258 HD
BRANCH  67  72
ATOM     72  C   LIG d   1       5.083  -8.644  -5.905  0.00  0.00     0.067 C 
ATOM     73  H   LIG d   1       4.373  -9.330  -6.365  0.00  0.00     0.066 H 
ATOM     74  H   LIG d   1       6.058  -8.757  -6.381  0.00  0.00     0.066 H 
BRANCH  72  75
ATOM     75  C   LIG d   1       5.204  -8.960  -4.413  0.00  0.00    -0.011 C 
ATOM     76  H   LIG d   1       5.172  -8.032  -3.842  0.00  0.00     0.033 H 
BRANCH  75  77
ATOM     77  C   LIG d   1       4.044  -9.862  -3.987  0.00  0.00    -0.050 C 
ATOM     78  H   LIG d   1       3.935  -9.825  -2.903  0.00  0.00     0.027 H 
ATOM     79  H   LIG d   1       3.123  -9.517  -4.457  0.00  0.00     0.027 H 
BRANCH  77  80
ATOM     80  C   LIG d   1       4.331 -11.300  -4.422  0.00  0.00    -0.065 C 
ATOM     81  H   LIG d   1       4.119 -11.407  -5.486  0.00  0.00     0.023 H 
ATOM     82  H   LIG d   1       5.379 -11.534  -4.236  0.00  0.00     0.023 H 
ATOM     83  H   LIG d   1       3.701 -11.985  -3.855  0.00  0.00     0.023 H 
ENDBRANCH  77  80
ENDBRANCH  75  77
BRANCH  75  84
ATOM     84  C   LIG d   1       6.530  -9.676  -4.149  0.00  0.00    -0.047 C 
ATOM     85  H   LIG d   1       6.410 -10.367  -3.314  0.00  0.00     0.027 H 
ATOM     86  H   LIG d   1       6.828 -10.230  -5.039  0.00  0.00     0.027 H 
BRANCH  84  87
ATOM     87  C   LIG d   1       7.608  -8.645  -3.806  0.00  0.00    -0.053 C 
ATOM     88  H   LIG d   1       8.405  -8.694  -4.547  0.00  0.00     0.026 H 
ATOM     89  H   LIG d   1       7.170  -7.647  -3.809  0.00  0.00     0.026 H 
BRANCH  87  90
ATOM     90  C   LIG d   1       8.179  -8.947  -2.420  0.00  0.00    -0.056 C 
ATOM     91  H   LIG d   1       9.110  -9.505  -2.524  0.00  0.00     0.026 H 
ATOM     92  H   LIG d   1       8.372  -8.012  -1.894  0.00  0.00     0.026 H 
BRANCH  90  93
ATOM     93  C   LIG d   1       7.172  -9.781  -1.624  0.00  0.00    -0.065 C 
ATOM     94  H   LIG d   1       6.184  -9.330  -1.704  0.00  0.00     0.023 H 
ATOM     95  H   LIG d   1       7.143 -10.794  -2.025  0.00  0.00     0.023 H 
ATOM     96  H   LIG d   1       7.474  -9.813  -0.578  0.00  0.00     0.023 H 
ENDBRANCH  90  93
ENDBRANCH  87  90
ENDBRANCH  84  87
ENDBRANCH  75  84
ENDBRANCH  72  75
ENDBRANCH  67  72
ENDBRANCH  55  58
ENDBRANCH  52  55
ENDBRANCH  49  52
ENDBRANCH   1  49
TORSDOF 23
ENDMDL
MODEL 7
REMARK VINA RESULT:      -5.7      2.195      9.407
REMARK  23 active torsions:
REMARK  status: ('A' for Active; 'I' for Inactive)
REMARK    1  A    between atoms: C_1  and  C_2 
REMARK    2  A    between atoms: C_2  and  C_3 
REMARK    3  A    between atoms: C_3  and  C_4 
REMARK    4  A    between atoms: C_4  and  C_5 
REMARK    5  A    between atoms: C_5  and  C_7 
REMARK    6  A    between atoms: C_5  and  C_9 
REMARK    7  A    between atoms: C_7  and  C_8 
REMARK    8  A    between atoms: C_9  and  N_10 
REMARK       I    between atoms: N_10  and  C_11 
REMARK       I    between atoms: C_11  and  N_13 
REMARK       I    between atoms: N_13  and  C_14 
REMARK       I    between atoms: C_14  and  N_16 
REMARK    9  A    between atoms: N_16  and  C_17 
REMARK   10  A    between atoms: C_17  and  C_18 
REMARK   11  A    between atoms: C_18  and  C_19 
REMARK   12  A    between atoms: C_19  and  C_20 
REMARK   13  A    between atoms: C_20  and  C_21 
REMARK   14  A    between atoms: C_21  and  C_22 
REMARK   15  A    between atoms: C_22  and  N_23 
REMARK       I    between atoms: N_23  and  C_24 
REMARK       I    between atoms: C_24  and  N_26 
REMARK       I    between atoms: N_26  and  C_27 
REMARK       I    between atoms: C_27  and  N_29 
REMARK   16  A    between atoms: N_29  and  C_30 
REMARK   17  A    between atoms: C_30  and  C_31 
REMARK   18  A    between atoms: C_31  and  C_33 
REMARK   19  A    between atoms: C_31  and  C_35 
REMARK   20  A    between atoms: C_33  and  C_34 
REMARK   21  A    between atoms: C_35  and  C_36 
REMARK   22  A    between atoms: C_36  and  C_37 
REMARK   23  A    between atoms: C_37  and  C_38 
ROOT
ATOM      1  C   LIG d   1       5.523   1.091  -2.719  0.00  0.00    -0.050 C 
ATOM      2  H   LIG d   1       6.106   1.901  -2.281  0.00  0.00     0.027 H 
ATOM      3  H   LIG d   1       4.931   1.476  -3.549  0.00  0.00     0.027 H 
ENDROOT
BRANCH   1   4
ATOM      4  C   LIG d   1       6.468   0.001  -3.229  0.00  0.00    -0.022 C 
ATOM      5  H   LIG d   1       5.883  -0.826  -3.634  0.00  0.00     0.030 H 
ATOM      6  H   LIG d   1       7.084  -0.361  -2.406  0.00  0.00     0.030 H 
BRANCH   4   7
ATOM      7  C   LIG d   1       7.365   0.576  -4.326  0.00  0.00     0.065 C 
ATOM      8  H   LIG d   1       6.859   0.499  -5.288  0.00  0.00     0.066 H 
ATOM      9  H   LIG d   1       8.301   0.017  -4.361  0.00  0.00     0.066 H 
BRANCH   7  10
ATOM     10  N   LIG d   1       7.649   1.984  -4.036  0.00  0.00    -0.278 N 
ATOM     11  C   LIG d   1       8.660   2.633  -4.703  0.00  0.00     0.352 C 
ATOM     12  N   LIG d   1       8.928   3.959  -4.430  0.00  0.00    -0.191 N 
ATOM     13  N   LIG d   1       9.367   1.996  -5.593  0.00  0.00    -0.291 N 
ATOM     14  C   LIG d   1       9.640   4.719  -5.334  0.00  0.00     0.352 C 
ATOM     15  H   LIG d   1       8.614   4.356  -3.603  0.00  0.00     0.271 HD
ATOM     16  N   LIG d   1      10.244   5.885  -4.925  0.00  0.00    -0.278 N 
ATOM     17  N   LIG d   1       9.741   4.332  -6.574  0.00  0.00    -0.291 N 
ATOM     18  H   LIG d   1      10.170   6.172  -4.002  0.00  0.00     0.258 HD
ATOM     19  H   LIG d   1       9.236   3.566  -6.885  0.00  0.00     0.255 HD
ATOM     20  H   LIG d   1      10.321   4.813  -7.185  0.00  0.00     0.255 HD
ATOM     21  H   LIG d   1       9.117   1.097  -5.857  0.00  0.00     0.255 HD
ATOM     22  H   LIG d   1      10.141   2.423  -5.994  0.00  0.00     0.255 HD
ATOM     23  H   LIG d   1       7.124   2.458  -3.372  0.00  0.00     0.258 HD
BRANCH  16  24
ATOM     24  C   LIG d   1      11.001   6.692  -5.885  0.00  0.00     0.067 C 
ATOM     25  H   LIG d   1      11.259   6.081  -6.751  0.00  0.00     0.066 H 
ATOM     26  H   LIG d   1      11.914   7.057  -5.414  0.00  0.00     0.066 H 
BRANCH  24  27
ATOM     27  C   LIG d   1      10.150   7.880  -6.336  0.00  0.00    -0.011 C 
ATOM     28  H   LIG d   1       9.102   7.682  -6.110  0.00  0.00     0.033 H 
BRANCH  27  29
ATOM     29  C   LIG d   1      10.603   9.141  -5.599  0.00  0.00    -0.047 C 
ATOM     30  H   LIG d   1      11.189   9.766  -6.273  0.00  0.00     0.027 H 
ATOM     31  H   LIG d   1      11.212   8.862  -4.740  0.00  0.00     0.027 H 
BRANCH  29  32
ATOM     32  C   LIG d   1       9.375   9.921  -5.121  0.00  0.00    -0.053 C 
ATOM     33  H   LIG d   1       9.147   9.643  -4.092  0.00  0.00     0.026 H 
ATOM     34  H   LIG d   1       8.523   9.684  -5.758  0.00  0.00     0.026 H 
BRANCH  32  35
ATOM     35  C   LIG d   1       9.664  11.422  -5.192  0.00  0.00    -0.056 C 
ATOM     36  H   LIG d   1       9.245  11.829  -6.111  0.00  0.00     0.026 H 
ATOM     37  H   LIG d   1      10.742  11.585  -5.180  0.00  0.00     0.026 H 
BRANCH  35  38
ATOM     38  C   LIG d   1       9.029  12.121  -3.988  0.00  0.00    -0.065 C 
ATOM     39  H   LIG d   1       8.870  13.174  -4.221  0.00  0.00     0.023 H 
ATOM     40  H   LIG d   1       8.074  11.651  -3.758  0.00  0.00     0.023 H 
ATOM     41  H   LIG d   1       9.693  12.036  -3.127  0.00  0.00     0.023 H 
ENDBRANCH  35  38
ENDBRANCH  32  35
ENDBRANCH  29  32
ENDBRANCH  27  29
BRANCH  27  42
ATOM     42  C   LIG d   1      10.315   8.084  -7.843  0.00  0.00    -0.050 C 
ATOM     43  H   LIG d   1      10.893   8.991  -8.027  0.00  0.00     0.027 H 
ATOM     44  H   LIG d   1      10.836   7.228  -8.272  0.00  0.00     0.027 H 
BRANCH  42  45
ATOM     45  C   LIG d   1       8.936   8.219  -8.493  0.00  0.00    -0.065 C 
ATOM     46  H   LIG d   1       9.040   8.183  -9.578  0.00  0.00     0.023 H 
ATOM     47  H   LIG d   1       8.297   7.401  -8.163  0.00  0.00     0.023 H 
ATOM     48  H   LIG d   1       8.489   9.170  -8.203  0.00  0.00     0.023 H 
ENDBRANCH  42  45
ENDBRANCH  27  42
ENDBRANCH  24  27
ENDBRANCH  16  24
ENDBRANCH   7  10
ENDBRANCH   4   7
ENDBRANCH   1   4
BRANCH   1  49
ATOM     49  C   LIG d   1       4.591   0.503  -1.658  0.00  0.00    -0.050 C 
ATOM     50  H   LIG d   1       5.036   0.633  -0.671  0.00  0.00     0.027 H 
ATOM     51  H   LIG d   1       3.630   1.015  -1.694  0.00  0.00     0.027 H 
BRANCH  49  52
ATOM     52  C   LIG d   1       4.385  -0.988  -1.930  0.00  0.00    -0.022 C 
ATOM     53  H   LIG d   1       5.247  -1.381  -2.469  0.00  0.00     0.030 H 
ATOM     54  H   LIG d   1       4.276  -1.520  -0.984  0.00  0.00     0.030 H 
BRANCH  52  55
ATOM     55  C   LIG d   1       3.123  -1.184  -2.773  0.00  0.00     0.065 C 
ATOM     56  H   LIG d   1       2.428  -1.833  -2.242  0.00  0.00     0.066 H 
ATOM     57  H   LIG d   1       2.652  -0.217  -2.952  0.00  0.00     0.066 H 
BRANCH  55  58
ATOM     58  N   LIG d   1       3.482  -1.795  -4.055  0.00  0.00    -0.278 N 
ATOM     59  C   LIG d   1       3.547  -1.023  -5.191  0.00  0.00     0.352 C 
ATOM     60  N   LIG d   1       3.291   0.252  -5.126  0.00  0.00    -0.291 N 
ATOM     61  N   LIG d   1       3.885  -1.600  -6.398  0.00  0.00    -0.191 N 
ATOM     62  H   LIG d   1       3.235   0.777  -5.940  0.00  0.00     0.255 HD
ATOM     63  H   LIG d   1       3.155   0.677  -4.265  0.00  0.00     0.255 HD
ATOM     64  C   LIG d   1       4.432  -0.828  -7.401  0.00  0.00     0.352 C 
ATOM     65  H   LIG d   1       3.738  -2.548  -6.540  0.00  0.00     0.271 HD
ATOM     66  N   LIG d   1       5.040   0.287  -7.107  0.00  0.00    -0.291 N 
ATOM     67  N   LIG d   1       4.337  -1.234  -8.711  0.00  0.00    -0.278 N 
ATOM     68  H   LIG d   1       5.333   0.881  -7.817  0.00  0.00     0.255 HD
ATOM     69  H   LIG d   1       5.201   0.523  -6.180  0.00  0.00     0.255 HD
ATOM     70  H   LIG d   1       3.885  -2.064  -8.929  0.00  0.00     0.258 HD
ATOM     71  H   LIG d   1       3.673  -2.745  -4.102  0.00  0.00     0.258 HD
BRANCH  67  72
ATOM     72  C   LIG d   1       4.918  -0.414  -9.776  0.00  0.00     0.067 C 
ATOM     73  H   LIG d   1       5.630   0.289  -9.347  0.00  0.00     0.066 H 
ATOM     74  H   LIG d   1       5.429  -1.058 -10.493  0.00  0.00     0.066 H 
BRANCH  72  75
ATOM     75  C   LIG d   1       3.805   0.359 -10.488  0.00  0.00    -0.011 C 
ATOM     76  H   LIG d   1       2.839   0.062 -10.080  0.00  0.00     0.033 H 
BRANCH  75  77
ATOM     77  C   LIG d   1       4.010   1.860 -10.275  0.00  0.00    -0.050 C 
ATOM     78  H   LIG d   1       5.054   2.052 -10.027  0.00  0.00     0.027 H 
ATOM     79  H   LIG d   1       3.748   2.396 -11.187  0.00  0.00     0.027 H 
BRANCH  77  80
ATOM     80  C   LIG d   1       3.117   2.338  -9.129  0.00  0.00    -0.065 C 
ATOM     81  H   LIG d   1       2.473   1.521  -8.805  0.00  0.00     0.023 H 
ATOM     82  H   LIG d   1       3.739   2.663  -8.295  0.00  0.00     0.023 H 
ATOM     83  H   LIG d   1       2.503   3.172  -9.469  0.00  0.00     0.023 H 
ENDBRANCH  77  80
ENDBRANCH  75  77
BRANCH  75  84
ATOM     84  C   LIG d   1       3.846   0.047 -11.986  0.00  0.00    -0.047 C 
ATOM     85  H   LIG d   1       3.491   0.912 -12.546  0.00  0.00     0.027 H 
ATOM     86  H   LIG d   1       4.869  -0.184 -12.282  0.00  0.00     0.027 H 
BRANCH  84  87
ATOM     87  C   LIG d   1       2.945  -1.155 -12.281  0.00  0.00    -0.053 C 
ATOM     88  H   LIG d   1       2.754  -1.210 -13.353  0.00  0.00     0.026 H 
ATOM     89  H   LIG d   1       3.440  -2.068 -11.953  0.00  0.00     0.026 H 
BRANCH  87  90
ATOM     90  C   LIG d   1       1.621  -0.994 -11.534  0.00  0.00    -0.056 C 
ATOM     91  H   LIG d   1       1.686  -0.142 -10.857  0.00  0.00     0.026 H 
ATOM     92  H   LIG d   1       0.816  -0.828 -12.251  0.00  0.00     0.026 H 
BRANCH  90  93
ATOM     93  C   LIG d   1       1.332  -2.263 -10.729  0.00  0.00    -0.065 C 
ATOM     94  H   LIG d   1       2.266  -2.786 -10.527  0.00  0.00     0.023 H 
ATOM     95  H   LIG d   1       0.854  -1.994  -9.787  0.00  0.00     0.023 H 
ATOM     96  H   LIG d   1       0.668  -2.912 -11.299  0.00  0.00     0.023 H 
ENDBRANCH  90  93
ENDBRANCH  87  90
ENDBRANCH  84  87
ENDBRANCH  75  84
ENDBRANCH  72  75
ENDBRANCH  67  72
ENDBRANCH  55  58
ENDBRANCH  52  55
ENDBRANCH  49  52
ENDBRANCH   1  49
TORSDOF 23
ENDMDL
MODEL 8
REMARK VINA RESULT:      -5.7      3.929      8.289
REMARK  23 active torsions:
REMARK  status: ('A' for Active; 'I' for Inactive)
REMARK    1  A    between atoms: C_1  and  C_2 
REMARK    2  A    between atoms: C_2  and  C_3 
REMARK    3  A    between atoms: C_3  and  C_4 
REMARK    4  A    between atoms: C_4  and  C_5 
REMARK    5  A    between atoms: C_5  and  C_7 
REMARK    6  A    between atoms: C_5  and  C_9 
REMARK    7  A    between atoms: C_7  and  C_8 
REMARK    8  A    between atoms: C_9  and  N_10 
REMARK       I    between atoms: N_10  and  C_11 
REMARK       I    between atoms: C_11  and  N_13 
REMARK       I    between atoms: N_13  and  C_14 
REMARK       I    between atoms: C_14  and  N_16 
REMARK    9  A    between atoms: N_16  and  C_17 
REMARK   10  A    between atoms: C_17  and  C_18 
REMARK   11  A    between atoms: C_18  and  C_19 
REMARK   12  A    between atoms: C_19  and  C_20 
REMARK   13  A    between atoms: C_20  and  C_21 
REMARK   14  A    between atoms: C_21  and  C_22 
REMARK   15  A    between atoms: C_22  and  N_23 
REMARK       I    between atoms: N_23  and  C_24 
REMARK       I    between atoms: C_24  and  N_26 
REMARK       I    between atoms: N_26  and  C_27 
REMARK       I    between atoms: C_27  and  N_29 
REMARK   16  A    between atoms: N_29  and  C_30 
REMARK   17  A    between atoms: C_30  and  C_31 
REMARK   18  A    between atoms: C_31  and  C_33 
REMARK   19  A    between atoms: C_31  and  C_35 
REMARK   20  A    between atoms: C_33  and  C_34 
REMARK   21  A    between atoms: C_35  and  C_36 
REMARK   22  A    between atoms: C_36  and  C_37 
REMARK   23  A    between atoms: C_37  and  C_38 
ROOT
ATOM      1  C   LIG d   1      11.868   5.408  -2.369  0.00  0.00    -0.050 C 
ATOM      2  H   LIG d   1      12.883   5.013  -2.348  0.00  0.00     0.027 H 
ATOM      3  H   LIG d   1      11.900   6.487  -2.517  0.00  0.00     0.027 H 
ENDROOT
BRANCH   1   4
ATOM      4  C   LIG d   1      11.092   4.757  -3.516  0.00  0.00    -0.022 C 
ATOM      5  H   LIG d   1      11.738   4.671  -4.390  0.00  0.00     0.030 H 
ATOM      6  H   LIG d   1      10.227   5.373  -3.764  0.00  0.00     0.030 H 
BRANCH   4   7
ATOM      7  C   LIG d   1      10.623   3.366  -3.089  0.00  0.00     0.065 C 
ATOM      8  H   LIG d   1      10.753   3.252  -2.012  0.00  0.00     0.066 H 
ATOM      9  H   LIG d   1      11.209   2.608  -3.608  0.00  0.00     0.066 H 
BRANCH   7  10
ATOM     10  N   LIG d   1       9.206   3.202  -3.427  0.00  0.00    -0.278 N 
ATOM     11  C   LIG d   1       8.746   1.994  -3.893  0.00  0.00     0.352 C 
ATOM     12  N   LIG d   1       7.412   1.840  -4.212  0.00  0.00    -0.191 N 
ATOM     13  N   LIG d   1       9.569   0.995  -4.036  0.00  0.00    -0.291 N 
ATOM     14  C   LIG d   1       6.864   0.578  -4.297  0.00  0.00     0.352 C 
ATOM     15  H   LIG d   1       6.860   2.620  -4.377  0.00  0.00     0.271 HD
ATOM     16  N   LIG d   1       5.686   0.383  -4.978  0.00  0.00    -0.278 N 
ATOM     17  N   LIG d   1       7.464  -0.432  -3.730  0.00  0.00    -0.291 N 
ATOM     18  H   LIG d   1       5.240   1.134  -5.400  0.00  0.00     0.258 HD
ATOM     19  H   LIG d   1       8.239  -0.282  -3.168  0.00  0.00     0.255 HD
ATOM     20  H   LIG d   1       7.133  -1.333  -3.871  0.00  0.00     0.255 HD
ATOM     21  H   LIG d   1      10.483   1.071  -3.720  0.00  0.00     0.255 HD
ATOM     22  H   LIG d   1       9.267   0.173  -4.455  0.00  0.00     0.255 HD
ATOM     23  H   LIG d   1       8.593   3.947  -3.322  0.00  0.00     0.258 HD
BRANCH  16  24
ATOM     24  C   LIG d   1       5.105  -0.958  -5.068  0.00  0.00     0.067 C 
ATOM     25  H   LIG d   1       5.445  -1.559  -4.223  0.00  0.00     0.066 H 
ATOM     26  H   LIG d   1       5.419  -1.429  -5.999  0.00  0.00     0.066 H 
BRANCH  24  27
ATOM     27  C   LIG d   1       3.579  -0.856  -5.037  0.00  0.00    -0.011 C 
ATOM     28  H   LIG d   1       3.146  -1.765  -5.454  0.00  0.00     0.033 H 
BRANCH  27  29
ATOM     29  C   LIG d   1       3.107  -0.681  -3.593  0.00  0.00    -0.047 C 
ATOM     30  H   LIG d   1       2.027  -0.819  -3.543  0.00  0.00     0.027 H 
ATOM     31  H   LIG d   1       3.362   0.320  -3.245  0.00  0.00     0.027 H 
BRANCH  29  32
ATOM     32  C   LIG d   1       3.795  -1.720  -2.703  0.00  0.00    -0.053 C 
ATOM     33  H   LIG d   1       4.490  -2.308  -3.302  0.00  0.00     0.026 H 
ATOM     34  H   LIG d   1       3.044  -2.378  -2.266  0.00  0.00     0.026 H 
BRANCH  32  35
ATOM     35  C   LIG d   1       4.561  -1.008  -1.586  0.00  0.00    -0.056 C 
ATOM     36  H   LIG d   1       5.624  -1.232  -1.675  0.00  0.00     0.026 H 
ATOM     37  H   LIG d   1       4.197  -1.352  -0.618  0.00  0.00     0.026 H 
BRANCH  35  38
ATOM     38  C   LIG d   1       4.347   0.502  -1.704  0.00  0.00    -0.065 C 
ATOM     39  H   LIG d   1       3.482   0.699  -2.338  0.00  0.00     0.023 H 
ATOM     40  H   LIG d   1       4.175   0.923  -0.714  0.00  0.00     0.023 H 
ATOM     41  H   LIG d   1       5.231   0.962  -2.146  0.00  0.00     0.023 H 
ENDBRANCH  35  38
ENDBRANCH  32  35
ENDBRANCH  29  32
ENDBRANCH  27  29
BRANCH  27  42
ATOM     42  C   LIG d   1       3.131   0.348  -5.869  0.00  0.00    -0.050 C 
ATOM     43  H   LIG d   1       2.186   0.728  -5.478  0.00  0.00     0.027 H 
ATOM     44  H   LIG d   1       3.887   1.130  -5.815  0.00  0.00     0.027 H 
BRANCH  42  45
ATOM     45  C   LIG d   1       2.944  -0.081  -7.326  0.00  0.00    -0.065 C 
ATOM     46  H   LIG d   1       2.161   0.523  -7.785  0.00  0.00     0.023 H 
ATOM     47  H   LIG d   1       3.877   0.063  -7.869  0.00  0.00     0.023 H 
ATOM     48  H   LIG d   1       2.660  -1.133  -7.362  0.00  0.00     0.023 H 
ENDBRANCH  42  45
ENDBRANCH  27  42
ENDBRANCH  24  27
ENDBRANCH  16  24
ENDBRANCH   7  10
ENDBRANCH   4   7
ENDBRANCH   1   4
BRANCH   1  49
ATOM     49  C   LIG d   1      11.173   5.096  -1.041  0.00  0.00    -0.050 C 
ATOM     50  H   LIG d   1      10.105   5.297  -1.134  0.00  0.00     0.027 H 
ATOM     51  H   LIG d   1      11.324   4.047  -0.790  0.00  0.00     0.027 H 
BRANCH  49  52
ATOM     52  C   LIG d   1      11.763   5.976   0.062  0.00  0.00    -0.022 C 
ATOM     53  H   LIG d   1      11.919   5.378   0.960  0.00  0.00     0.030 H 
ATOM     54  H   LIG d   1      12.716   6.387  -0.270  0.00  0.00     0.030 H 
BRANCH  52  55
ATOM     55  C   LIG d   1      10.795   7.120   0.374  0.00  0.00     0.065 C 
ATOM     56  H   LIG d   1       9.799   6.860   0.019  0.00  0.00     0.066 H 
ATOM     57  H   LIG d   1      10.764   7.286   1.451  0.00  0.00     0.066 H 
BRANCH  55  58
ATOM     58  N   LIG d   1      11.250   8.341  -0.295  0.00  0.00    -0.278 N 
ATOM     59  C   LIG d   1      10.528   8.859  -1.345  0.00  0.00     0.352 C 
ATOM     60  N   LIG d   1       9.441   8.264  -1.743  0.00  0.00    -0.291 N 
ATOM     61  N   LIG d   1      10.957  10.009  -1.975  0.00  0.00    -0.191 N 
ATOM     62  H   LIG d   1       8.988   8.567  -2.546  0.00  0.00     0.255 HD
ATOM     63  H   LIG d   1       9.083   7.517  -1.238  0.00  0.00     0.255 HD
ATOM     64  C   LIG d   1      10.053  10.802  -2.650  0.00  0.00     0.352 C 
ATOM     65  H   LIG d   1      11.893  10.259  -1.943  0.00  0.00     0.271 HD
ATOM     66  N   LIG d   1       8.787  10.753  -2.345  0.00  0.00    -0.291 N 
ATOM     67  N   LIG d   1      10.488  11.646  -3.645  0.00  0.00    -0.278 N 
ATOM     68  H   LIG d   1       8.139  11.231  -2.886  0.00  0.00     0.255 HD
ATOM     69  H   LIG d   1       8.493  10.240  -1.576  0.00  0.00     0.255 HD
ATOM     70  H   LIG d   1      11.430  11.682  -3.872  0.00  0.00     0.258 HD
ATOM     71  H   LIG d   1      12.059   8.784   0.002  0.00  0.00     0.258 HD
BRANCH  67  72
ATOM     72  C   LIG d   1       9.528  12.488  -4.362  0.00  0.00     0.067 C 
ATOM     73  H   LIG d   1       8.556  12.429  -3.874  0.00  0.00     0.066 H 
ATOM     74  H   LIG d   1       9.876  13.522  -4.356  0.00  0.00     0.066 H 
BRANCH  72  75
ATOM     75  C   LIG d   1       9.403  12.001  -5.807  0.00  0.00    -0.011 C 
ATOM     76  H   LIG d   1       8.407  11.587  -5.966  0.00  0.00     0.033 H 
BRANCH  75  77
ATOM     77  C   LIG d   1       9.626  13.175  -6.763  0.00  0.00    -0.050 C 
ATOM     78  H   LIG d   1       9.055  13.012  -7.677  0.00  0.00     0.027 H 
ATOM     79  H   LIG d   1       9.295  14.098  -6.288  0.00  0.00     0.027 H 
BRANCH  77  80
ATOM     80  C   LIG d   1      11.113  13.280  -7.102  0.00  0.00    -0.065 C 
ATOM     81  H   LIG d   1      11.579  12.300  -7.002  0.00  0.00     0.023 H 
ATOM     82  H   LIG d   1      11.228  13.634  -8.127  0.00  0.00     0.023 H 
ATOM     83  H   LIG d   1      11.593  13.982  -6.421  0.00  0.00     0.023 H 
ENDBRANCH  77  80
ENDBRANCH  75  77
BRANCH  75  84
ATOM     84  C   LIG d   1      10.454  10.921  -6.074  0.00  0.00    -0.047 C 
ATOM     85  H   LIG d   1      11.220  11.316  -6.740  0.00  0.00     0.027 H 
ATOM     86  H   LIG d   1      10.912  10.618  -5.132  0.00  0.00     0.027 H 
BRANCH  84  87
ATOM     87  C   LIG d   1       9.786   9.709  -6.728  0.00  0.00    -0.053 C 
ATOM     88  H   LIG d   1       8.883  10.031  -7.248  0.00  0.00     0.026 H 
ATOM     89  H   LIG d   1      10.473   9.257  -7.442  0.00  0.00     0.026 H 
BRANCH  87  90
ATOM     90  C   LIG d   1       9.419   8.687  -5.652  0.00  0.00    -0.056 C 
ATOM     91  H   LIG d   1      10.020   8.866  -4.760  0.00  0.00     0.026 H 
ATOM     92  H   LIG d   1       8.362   8.782  -5.404  0.00  0.00     0.026 H 
BRANCH  90  93
ATOM     93  C   LIG d   1       9.694   7.275  -6.175  0.00  0.00    -0.065 C 
ATOM     94  H   LIG d   1       9.287   7.175  -7.181  0.00  0.00     0.023 H 
ATOM     95  H   LIG d   1      10.770   7.099  -6.199  0.00  0.00     0.023 H 
ATOM     96  H   LIG d   1       9.222   6.545  -5.518  0.00  0.00     0.023 H 
ENDBRANCH  90  93
ENDBRANCH  87  90
ENDBRANCH  84  87
ENDBRANCH  75  84
ENDBRANCH  72  75
ENDBRANCH  67  72
ENDBRANCH  55  58
ENDBRANCH  52  55
ENDBRANCH  49  52
ENDBRANCH   1  49
TORSDOF 23
ENDMDL
MODEL 9
REMARK VINA RESULT:      -5.7      1.871      5.926
REMARK  23 active torsions:
REMARK  status: ('A' for Active; 'I' for Inactive)
REMARK    1  A    between atoms: C_1  and  C_2 
REMARK    2  A    between atoms: C_2  and  C_3 
REMARK    3  A    between atoms: C_3  and  C_4 
REMARK    4  A    between atoms: C_4  and  C_5 
REMARK    5  A    between atoms: C_5  and  C_7 
REMARK    6  A    between atoms: C_5  and  C_9 
REMARK    7  A    between atoms: C_7  and  C_8 
REMARK    8  A    between atoms: C_9  and  N_10 
REMARK       I    between atoms: N_10  and  C_11 
REMARK       I    between atoms: C_11  and  N_13 
REMARK       I    between atoms: N_13  and  C_14 
REMARK       I    between atoms: C_14  and  N_16 
REMARK    9  A    between atoms: N_16  and  C_17 
REMARK   10  A    between atoms: C_17  and  C_18 
REMARK   11  A    between atoms: C_18  and  C_19 
REMARK   12  A    between atoms: C_19  and  C_20 
REMARK   13  A    between atoms: C_20  and  C_21 
REMARK   14  A    between atoms: C_21  and  C_22 
REMARK   15  A    between atoms: C_22  and  N_23 
REMARK       I    between atoms: N_23  and  C_24 
REMARK       I    between atoms: C_24  and  N_26 
REMARK       I    between atoms: N_26  and  C_27 
REMARK       I    between atoms: C_27  and  N_29 
REMARK   16  A    between atoms: N_29  and  C_30 
REMARK   17  A    between atoms: C_30  and  C_31 
REMARK   18  A    between atoms: C_31  and  C_33 
REMARK   19  A    between atoms: C_31  and  C_35 
REMARK   20  A    between atoms: C_33  and  C_34 
REMARK   21  A    between atoms: C_35  and  C_36 
REMARK   22  A    between atoms: C_36  and  C_37 
REMARK   23  A    between atoms: C_37  and  C_38 
ROOT
ATOM      1  C   LIG d   1       4.276   0.617 -11.321  0.00  0.00    -0.050 C 
ATOM      2  H   LIG d   1       5.018   0.122 -10.697  0.00  0.00     0.027 H 
ATOM      3  H   LIG d   1       4.771   1.085 -12.173  0.00  0.00     0.027 H 
ENDROOT
BRANCH   1   4
ATOM      4  C   LIG d   1       3.262  -0.413 -11.822  0.00  0.00    -0.022 C 
ATOM      5  H   LIG d   1       3.250  -0.410 -12.913  0.00  0.00     0.030 H 
ATOM      6  H   LIG d   1       2.270  -0.158 -11.449  0.00  0.00     0.030 H 
BRANCH   4   7
ATOM      7  C   LIG d   1       3.656  -1.802 -11.319  0.00  0.00     0.065 C 
ATOM      8  H   LIG d   1       4.741  -1.908 -11.355  0.00  0.00     0.066 H 
ATOM      9  H   LIG d   1       3.195  -2.562 -11.950  0.00  0.00     0.066 H 
BRANCH   7  10
ATOM     10  N   LIG d   1       3.196  -1.970  -9.938  0.00  0.00    -0.278 N 
ATOM     11  C   LIG d   1       4.078  -2.374  -8.964  0.00  0.00     0.352 C 
ATOM     12  N   LIG d   1       3.645  -2.533  -7.664  0.00  0.00    -0.191 N 
ATOM     13  N   LIG d   1       5.322  -2.609  -9.269  0.00  0.00    -0.291 N 
ATOM     14  C   LIG d   1       4.557  -2.547  -6.630  0.00  0.00     0.352 C 
ATOM     15  H   LIG d   1       2.699  -2.634  -7.477  0.00  0.00     0.271 HD
ATOM     16  N   LIG d   1       4.209  -3.084  -5.413  0.00  0.00    -0.278 N 
ATOM     17  N   LIG d   1       5.749  -2.052  -6.806  0.00  0.00    -0.291 N 
ATOM     18  H   LIG d   1       3.321  -3.453  -5.282  0.00  0.00     0.258 HD
ATOM     19  H   LIG d   1       5.964  -1.586  -7.629  0.00  0.00     0.255 HD
ATOM     20  H   LIG d   1       6.422  -2.149  -6.114  0.00  0.00     0.255 HD
ATOM     21  H   LIG d   1       5.650  -2.404 -10.159  0.00  0.00     0.255 HD
ATOM     22  H   LIG d   1       5.922  -2.987  -8.606  0.00  0.00     0.255 HD
ATOM     23  H   LIG d   1       2.270  -1.796  -9.711  0.00  0.00     0.258 HD
BRANCH  16  24
ATOM     24  C   LIG d   1       5.178  -3.099  -4.315  0.00  0.00     0.067 C 
ATOM     25  H   LIG d   1       6.180  -3.259  -4.716  0.00  0.00     0.066 H 
ATOM     26  H   LIG d   1       4.931  -3.903  -3.622  0.00  0.00     0.066 H 
BRANCH  24  27
ATOM     27  C   LIG d   1       5.134  -1.759  -3.577  0.00  0.00    -0.011 C 
ATOM     28  H   LIG d   1       4.804  -0.978  -4.263  0.00  0.00     0.033 H 
BRANCH  27  29
ATOM     29  C   LIG d   1       4.158  -1.855  -2.404  0.00  0.00    -0.047 C 
ATOM     30  H   LIG d   1       4.602  -1.392  -1.522  0.00  0.00     0.027 H 
ATOM     31  H   LIG d   1       3.942  -2.903  -2.194  0.00  0.00     0.027 H 
BRANCH  29  32
ATOM     32  C   LIG d   1       2.858  -1.127  -2.761  0.00  0.00    -0.053 C 
ATOM     33  H   LIG d   1       2.257  -0.997  -1.861  0.00  0.00     0.026 H 
ATOM     34  H   LIG d   1       2.300  -1.717  -3.488  0.00  0.00     0.026 H 
BRANCH  32  35
ATOM     35  C   LIG d   1       3.188   0.242  -3.357  0.00  0.00    -0.056 C 
ATOM     36  H   LIG d   1       4.264   0.319  -3.515  0.00  0.00     0.026 H 
ATOM     37  H   LIG d   1       2.864   1.025  -2.672  0.00  0.00     0.026 H 
BRANCH  35  38
ATOM     38  C   LIG d   1       2.463   0.403  -4.695  0.00  0.00    -0.065 C 
ATOM     39  H   LIG d   1       1.390   0.282  -4.544  0.00  0.00     0.023 H 
ATOM     40  H   LIG d   1       2.665   1.394  -5.100  0.00  0.00     0.023 H 
ATOM     41  H   LIG d   1       2.818  -0.355  -5.395  0.00  0.00     0.023 H 
ENDBRANCH  35  38
ENDBRANCH  32  35
ENDBRANCH  29  32
ENDBRANCH  27  29
BRANCH  27  42
ATOM     42  C   LIG d   1       6.530  -1.419  -3.052  0.00  0.00    -0.050 C 
ATOM     43  H   LIG d   1       6.542  -1.509  -1.965  0.00  0.00     0.027 H 
ATOM     44  H   LIG d   1       7.258  -2.106  -3.482  0.00  0.00     0.027 H 
BRANCH  42  45
ATOM     45  C   LIG d   1       6.888   0.015  -3.448  0.00  0.00    -0.065 C 
ATOM     46  H   LIG d   1       6.664   0.168  -4.504  0.00  0.00     0.023 H 
ATOM     47  H   LIG d   1       6.304   0.714  -2.849  0.00  0.00     0.023 H 
ATOM     48  H   LIG d   1       7.951   0.187  -3.274  0.00  0.00     0.023 H 
ENDBRANCH  42  45
ENDBRANCH  27  42
ENDBRANCH  24  27
ENDBRANCH  16  24
ENDBRANCH   7  10
ENDBRANCH   4   7
ENDBRANCH   1   4
BRANCH   1  49
ATOM     49  C   LIG d   1       3.553   1.689 -10.502  0.00  0.00    -0.050 C 
ATOM     50  H   LIG d   1       3.253   2.506 -11.157  0.00  0.00     0.027 H 
ATOM     51  H   LIG d   1       2.670   1.254 -10.035  0.00  0.00     0.027 H 
BRANCH  49  52
ATOM     52  C   LIG d   1       4.492   2.223  -9.419  0.00  0.00    -0.022 C 
ATOM     53  H   LIG d   1       4.874   3.199  -9.719  0.00  0.00     0.030 H 
ATOM     54  H   LIG d   1       3.947   2.320  -8.480  0.00  0.00     0.030 H 
BRANCH  52  55
ATOM     55  C   LIG d   1       5.661   1.253  -9.233  0.00  0.00     0.065 C 
ATOM     56  H   LIG d   1       5.323   0.236  -9.427  0.00  0.00     0.066 H 
ATOM     57  H   LIG d   1       6.460   1.509  -9.930  0.00  0.00     0.066 H 
BRANCH  55  58
ATOM     58  N   LIG d   1       6.161   1.349  -7.860  0.00  0.00    -0.278 N 
ATOM     59  C   LIG d   1       7.495   1.595  -7.630  0.00  0.00     0.352 C 
ATOM     60  N   LIG d   1       8.311   1.744  -8.633  0.00  0.00    -0.291 N 
ATOM     61  N   LIG d   1       7.966   1.685  -6.337  0.00  0.00    -0.191 N 
ATOM     62  H   LIG d   1       9.266   1.813  -8.476  0.00  0.00     0.255 HD
ATOM     63  H   LIG d   1       7.966   1.783  -9.539  0.00  0.00     0.255 HD
ATOM     64  C   LIG d   1       9.118   2.395  -6.071  0.00  0.00     0.352 C 
ATOM     65  H   LIG d   1       7.487   1.249  -5.615  0.00  0.00     0.271 HD
ATOM     66  N   LIG d   1       9.513   3.327  -6.892  0.00  0.00    -0.291 N 
ATOM     67  N   LIG d   1       9.849   2.120  -4.940  0.00  0.00    -0.278 N 
ATOM     68  H   LIG d   1      10.374   3.754  -6.762  0.00  0.00     0.255 HD
ATOM     69  H   LIG d   1       8.946   3.594  -7.631  0.00  0.00     0.255 HD
ATOM     70  H   LIG d   1       9.555   1.426  -4.329  0.00  0.00     0.258 HD
ATOM     71  H   LIG d   1       5.553   1.239  -7.113  0.00  0.00     0.258 HD
BRANCH  67  72
ATOM     72  C   LIG d   1      11.073   2.874  -4.658  0.00  0.00     0.067 C 
ATOM     73  H   LIG d   1      11.938   2.224  -4.784  0.00  0.00     0.066 H 
ATOM     74  H   LIG d   1      11.148   3.716  -5.347  0.00  0.00     0.066 H 
BRANCH  72  75
ATOM     75  C   LIG d   1      11.031   3.393  -3.219  0.00  0.00    -0.011 C 
ATOM     76  H   LIG d   1      10.998   2.550  -2.529  0.00  0.00     0.033 H 
BRANCH  75  77
ATOM     77  C   LIG d   1      12.282   4.230  -2.942  0.00  0.00    -0.050 C 
ATOM     78  H   LIG d   1      12.034   5.289  -3.019  0.00  0.00     0.027 H 
ATOM     79  H   LIG d   1      12.649   4.015  -1.939  0.00  0.00     0.027 H 
BRANCH  77  80
ATOM     80  C   LIG d   1      13.364   3.884  -3.966  0.00  0.00    -0.065 C 
ATOM     81  H   LIG d   1      12.976   4.044  -4.972  0.00  0.00     0.023 H 
ATOM     82  H   LIG d   1      14.233   4.521  -3.806  0.00  0.00     0.023 H 
ATOM     83  H   LIG d   1      13.654   2.840  -3.850  0.00  0.00     0.023 H 
ENDBRANCH  77  80
ENDBRANCH  75  77
BRANCH  75  84
ATOM     84  C   LIG d   1       9.785   4.261  -3.027  0.00  0.00    -0.047 C 
ATOM     85  H   LIG d   1       8.956   3.835  -3.592  0.00  0.00     0.027 H 
ATOM     86  H   LIG d   1       9.525   4.295  -1.969  0.00  0.00     0.027 H 
BRANCH  84  87
ATOM     87  C   LIG d   1      10.068   5.679  -3.529  0.00  0.00    -0.053 C 
ATOM     88  H   LIG d   1       9.956   6.383  -2.705  0.00  0.00     0.026 H 
ATOM     89  H   LIG d   1      11.085   5.731  -3.915  0.00  0.00     0.026 H 
BRANCH  87  90
ATOM     90  C   LIG d   1       9.080   6.032  -4.641  0.00  0.00    -0.056 C 
ATOM     91  H   LIG d   1       9.139   5.283  -5.431  0.00  0.00     0.026 H 
ATOM     92  H   LIG d   1       8.068   6.054  -4.236  0.00  0.00     0.026 H 
BRANCH  90  93
ATOM     93  C   LIG d   1       9.429   7.407  -5.215  0.00  0.00    -0.065 C 
ATOM     94  H   LIG d   1      10.376   7.347  -5.751  0.00  0.00     0.023 H 
ATOM     95  H   LIG d   1       8.643   7.724  -5.901  0.00  0.00     0.023 H 
ATOM     96  H   LIG d   1       9.516   8.129  -4.404  0.00  0.00     0.023 H 
ENDBRANCH  90  93
ENDBRANCH  87  90
ENDBRANCH  84  87
ENDBRANCH  75  84
ENDBRANCH  72  75
ENDBRANCH  67  72
ENDBRANCH  55  58
ENDBRANCH  52  55
ENDBRANCH  49  52
ENDBRANCH   1  49
TORSDOF 23
ENDMDL
