MODEL 1
REMARK VINA RESULT:      -7.3      0.000      0.000
REMARK  7 active torsions:
REMARK  status: ('A' for Active; 'I' for Inactive)
REMARK    1  A    between atoms: C_1  and  C_2 
REMARK    2  A    between atoms: C_13  and  O_15 
REMARK    3  A    between atoms: O_15  and  C_16 
REMARK    4  A    between atoms: C_16  and  C_18 
REMARK    5  A    between atoms: C_18  and  C_19 
REMARK    6  A    between atoms: C_19  and  C_20 
REMARK    7  A    between atoms: C_34  and  C_35 
ROOT
ATOM      1  C   LIG d   1       6.516  -0.631  -6.668  0.00  0.00     0.008 C 
ATOM      2  C   LIG d   1       6.315  -0.861  -5.189  0.00  0.00    -0.044 C 
ATOM      3  C   LIG d   1       7.651  -1.110  -4.495  0.00  0.00    -0.049 C 
ATOM      4  C   LIG d   1       8.595  -2.090  -5.174  0.00  0.00    -0.029 C 
ATOM      5  H   LIG d   1       9.623  -1.779  -4.827  0.00  0.00     0.031 H 
ATOM      6  C   LIG d   1       8.632  -1.948  -6.688  0.00  0.00    -0.034 C 
ATOM      7  H   LIG d   1       9.163  -0.998  -6.916  0.00  0.00     0.031 H 
ATOM      8  C   LIG d   1       7.244  -1.859  -7.262  0.00  0.00    -0.029 C 
ATOM      9  H   LIG d   1       6.678  -2.773  -7.045  0.00  0.00     0.031 H 
ATOM     10  C   LIG d   1       7.136  -1.586  -8.770  0.00  0.00    -0.046 C 
ATOM     11  C   LIG d   1       5.679  -1.066  -8.919  0.00  0.00    -0.015 C 
ATOM     12  C   LIG d   1       5.237  -0.583  -7.515  0.00  0.00     0.109 C 
ATOM     13  H   LIG d   1       4.488  -1.253  -7.097  0.00  0.00     0.074 H 
ATOM     14  C   LIG d   1       9.455  -3.025  -7.389  0.00  0.00    -0.046 C 
ATOM     15  C   LIG d   1       8.970  -4.421  -6.986  0.00  0.00    -0.030 C 
ATOM     16  C   LIG d   1       9.161  -4.499  -5.479  0.00  0.00    -0.060 C 
ATOM     17  C   LIG d   1       9.990  -5.417  -4.998  0.00  0.00    -0.019 C 
ATOM     18  C   LIG d   1      10.305  -5.429  -3.566  0.00  0.00     0.156 C 
ATOM     19  O   LIG d   1      10.713  -6.427  -3.007  0.00  0.00    -0.293 OA
ATOM     20  C   LIG d   1      10.090  -4.126  -2.824  0.00  0.00     0.011 C 
ATOM     21  C   LIG d   1       8.709  -3.581  -3.161  0.00  0.00    -0.037 C 
ATOM     22  C   LIG d   1       8.419  -3.501  -4.648  0.00  0.00    -0.007 C 
ATOM     23  H   LIG d   1       5.850   0.042  -4.757  0.00  0.00     0.027 H 
ATOM     24  H   LIG d   1       5.619  -1.684  -5.027  0.00  0.00     0.027 H 
ATOM     25  H   LIG d   1       7.450  -1.455  -3.470  0.00  0.00     0.027 H 
ATOM     26  H   LIG d   1       8.176  -0.148  -4.382  0.00  0.00     0.027 H 
ATOM     27  H   LIG d   1       7.269  -2.512  -9.331  0.00  0.00     0.027 H 
ATOM     28  H   LIG d   1       7.857  -0.841  -9.091  0.00  0.00     0.027 H 
ATOM     29  H   LIG d   1       5.029  -1.874  -9.258  0.00  0.00     0.030 H 
ATOM     30  H   LIG d   1       5.645  -0.240  -9.629  0.00  0.00     0.030 H 
ATOM     31  H   LIG d   1       9.361  -2.906  -8.468  0.00  0.00     0.027 H 
ATOM     32  H   LIG d   1      10.503  -2.912  -7.107  0.00  0.00     0.027 H 
ATOM     33  H   LIG d   1       9.584  -5.179  -7.474  0.00  0.00     0.031 H 
ATOM     34  H   LIG d   1       7.929  -4.555  -7.253  0.00  0.00     0.031 H 
ATOM     35  H   LIG d   1      10.431  -6.151  -5.658  0.00  0.00     0.065 H 
ATOM     36  H   LIG d   1      10.787  -3.465  -3.101  0.00  0.00     0.035 H 
ATOM     37  H   LIG d   1      10.166  -4.303  -1.747  0.00  0.00     0.035 H 
ATOM     38  H   LIG d   1       8.617  -2.581  -2.735  0.00  0.00     0.028 H 
ATOM     39  H   LIG d   1       7.952  -4.221  -2.701  0.00  0.00     0.028 H 
ENDROOT
BRANCH  12  40
ATOM     40  O   LIG d   1       4.735   0.776  -7.580  0.00  0.00    -0.461 OA
BRANCH  40  41
ATOM     41  C   LIG d   1       3.465   0.976  -7.195  0.00  0.00     0.308 C 
ATOM     42  O   LIG d   1       2.850   1.929  -7.613  0.00  0.00    -0.251 OA
BRANCH  41  43
ATOM     43  C   LIG d   1       2.805   0.012  -6.243  0.00  0.00     0.049 C 
ATOM     44  H   LIG d   1       1.919  -0.415  -6.714  0.00  0.00     0.038 H 
ATOM     45  H   LIG d   1       3.504  -0.786  -5.992  0.00  0.00     0.038 H 
BRANCH  43  46
ATOM     46  C   LIG d   1       2.398   0.753  -4.968  0.00  0.00    -0.018 C 
ATOM     47  H   LIG d   1       2.645   1.810  -5.069  0.00  0.00     0.032 H 
ATOM     48  H   LIG d   1       1.325   0.643  -4.811  0.00  0.00     0.032 H 
BRANCH  46  49
ATOM     49  C   LIG d   1       3.141   0.174  -3.791  0.00  0.00    -0.047 A 
ATOM     50  C   LIG d   1       3.867   1.003  -2.957  0.00  0.00    -0.059 A 
ATOM     51  C   LIG d   1       4.549   0.472  -1.878  0.00  0.00    -0.061 A 
ATOM     52  H   LIG d   1       3.902   2.065  -3.147  0.00  0.00     0.062 H 
ATOM     53  C   LIG d   1       4.504  -0.888  -1.633  0.00  0.00    -0.062 A 
ATOM     54  H   LIG d   1       5.117   1.119  -1.226  0.00  0.00     0.062 H 
ATOM     55  C   LIG d   1       3.777  -1.717  -2.468  0.00  0.00    -0.061 A 
ATOM     56  H   LIG d   1       5.035  -1.304  -0.790  0.00  0.00     0.062 H 
ATOM     57  C   LIG d   1       3.091  -1.185  -3.545  0.00  0.00    -0.059 A 
ATOM     58  H   LIG d   1       3.742  -2.780  -2.277  0.00  0.00     0.062 H 
ATOM     59  H   LIG d   1       2.521  -1.832  -4.194  0.00  0.00     0.062 H 
ENDBRANCH  46  49
ENDBRANCH  43  46
ENDBRANCH  41  43
ENDBRANCH  40  41
ENDBRANCH  12  40
BRANCH   1  60
ATOM     60  C   LIG d   1       7.290   0.666  -6.899  0.00  0.00    -0.056 C 
ATOM     61  H   LIG d   1       8.034   0.510  -7.681  0.00  0.00     0.024 H 
ATOM     62  H   LIG d   1       6.600   1.451  -7.205  0.00  0.00     0.024 H 
ATOM     63  H   LIG d   1       7.790   0.960  -5.976  0.00  0.00     0.024 H 
ENDBRANCH   1  60
BRANCH  22  64
ATOM     64  C   LIG d   1       6.941  -3.899  -4.760  0.00  0.00    -0.056 C 
ATOM     65  H   LIG d   1       6.829  -4.668  -5.523  0.00  0.00     0.024 H 
ATOM     66  H   LIG d   1       6.594  -4.285  -3.801  0.00  0.00     0.024 H 
ATOM     67  H   LIG d   1       6.350  -3.025  -5.035  0.00  0.00     0.024 H 
ENDBRANCH  22  64
TORSDOF 7
ENDMDL
MODEL 2
REMARK VINA RESULT:      -7.1      3.645      5.723
REMARK  7 active torsions:
REMARK  status: ('A' for Active; 'I' for Inactive)
REMARK    1  A    between atoms: C_1  and  C_2 
REMARK    2  A    between atoms: C_13  and  O_15 
REMARK    3  A    between atoms: O_15  and  C_16 
REMARK    4  A    between atoms: C_16  and  C_18 
REMARK    5  A    between atoms: C_18  and  C_19 
REMARK    6  A    between atoms: C_19  and  C_20 
REMARK    7  A    between atoms: C_34  and  C_35 
ROOT
ATOM      1  C   LIG d   1       7.431  -0.113  -5.671  0.00  0.00     0.008 C 
ATOM      2  C   LIG d   1       7.535   0.296  -4.221  0.00  0.00    -0.044 C 
ATOM      3  C   LIG d   1       7.503   1.815  -4.086  0.00  0.00    -0.049 C 
ATOM      4  C   LIG d   1       8.392   2.600  -5.039  0.00  0.00    -0.029 C 
ATOM      5  H   LIG d   1       7.894   3.608  -5.125  0.00  0.00     0.031 H 
ATOM      6  C   LIG d   1       8.404   2.044  -6.454  0.00  0.00    -0.034 C 
ATOM      7  H   LIG d   1       7.413   2.271  -6.905  0.00  0.00     0.031 H 
ATOM      8  C   LIG d   1       8.589   0.551  -6.453  0.00  0.00    -0.029 C 
ATOM      9  H   LIG d   1       9.551   0.282  -6.001  0.00  0.00     0.031 H 
ATOM     10  C   LIG d   1       8.493  -0.158  -7.813  0.00  0.00    -0.046 C 
ATOM     11  C   LIG d   1       8.221  -1.634  -7.410  0.00  0.00    -0.015 C 
ATOM     12  C   LIG d   1       7.668  -1.601  -5.963  0.00  0.00     0.109 C 
ATOM     13  H   LIG d   1       8.397  -2.006  -5.264  0.00  0.00     0.074 H 
ATOM     14  C   LIG d   1       9.409   2.728  -7.377  0.00  0.00    -0.046 C 
ATOM     15  C   LIG d   1      10.814   2.689  -6.767  0.00  0.00    -0.030 C 
ATOM     16  C   LIG d   1      10.705   3.438  -5.447  0.00  0.00    -0.060 C 
ATOM     17  C   LIG d   1      11.430   4.538  -5.288  0.00  0.00    -0.019 C 
ATOM     18  C   LIG d   1      11.245   5.360  -4.087  0.00  0.00     0.156 C 
ATOM     19  O   LIG d   1      12.106   6.120  -3.692  0.00  0.00    -0.293 OA
ATOM     20  C   LIG d   1       9.921   5.204  -3.369  0.00  0.00     0.011 C 
ATOM     21  C   LIG d   1       9.632   3.723  -3.170  0.00  0.00    -0.037 C 
ATOM     22  C   LIG d   1       9.752   2.891  -4.432  0.00  0.00    -0.007 C 
ATOM     23  H   LIG d   1       6.674  -0.130  -3.678  0.00  0.00     0.027 H 
ATOM     24  H   LIG d   1       8.434  -0.128  -3.774  0.00  0.00     0.027 H 
ATOM     25  H   LIG d   1       7.766   2.077  -3.051  0.00  0.00     0.027 H 
ATOM     26  H   LIG d   1       6.466   2.162  -4.219  0.00  0.00     0.027 H 
ATOM     27  H   LIG d   1       9.442  -0.078  -8.347  0.00  0.00     0.027 H 
ATOM     28  H   LIG d   1       7.684   0.244  -8.414  0.00  0.00     0.027 H 
ATOM     29  H   LIG d   1       9.149  -2.206  -7.442  0.00  0.00     0.030 H 
ATOM     30  H   LIG d   1       7.488  -2.078  -8.082  0.00  0.00     0.030 H 
ATOM     31  H   LIG d   1       9.419   2.220  -8.341  0.00  0.00     0.027 H 
ATOM     32  H   LIG d   1       9.109   3.767  -7.524  0.00  0.00     0.027 H 
ATOM     33  H   LIG d   1      11.515   3.203  -7.424  0.00  0.00     0.031 H 
ATOM     34  H   LIG d   1      11.132   1.666  -6.607  0.00  0.00     0.031 H 
ATOM     35  H   LIG d   1      12.153   4.827  -6.039  0.00  0.00     0.065 H 
ATOM     36  H   LIG d   1       9.193   5.615  -3.918  0.00  0.00     0.035 H 
ATOM     37  H   LIG d   1       9.971   5.706  -2.398  0.00  0.00     0.035 H 
ATOM     38  H   LIG d   1       8.618   3.616  -2.779  0.00  0.00     0.028 H 
ATOM     39  H   LIG d   1      10.328   3.321  -2.430  0.00  0.00     0.028 H 
ENDROOT
BRANCH  12  40
ATOM     40  O   LIG d   1       6.416  -2.328  -5.881  0.00  0.00    -0.461 OA
BRANCH  40  41
ATOM     41  C   LIG d   1       6.094  -2.855  -4.689  0.00  0.00     0.308 C 
ATOM     42  O   LIG d   1       6.963  -3.138  -3.900  0.00  0.00    -0.251 OA
BRANCH  41  43
ATOM     43  C   LIG d   1       4.648  -3.090  -4.336  0.00  0.00     0.049 C 
ATOM     44  H   LIG d   1       4.011  -2.513  -5.007  0.00  0.00     0.038 H 
ATOM     45  H   LIG d   1       4.417  -4.150  -4.437  0.00  0.00     0.038 H 
BRANCH  43  46
ATOM     46  C   LIG d   1       4.398  -2.650  -2.892  0.00  0.00    -0.018 C 
ATOM     47  H   LIG d   1       3.528  -3.176  -2.497  0.00  0.00     0.032 H 
ATOM     48  H   LIG d   1       5.272  -2.883  -2.284  0.00  0.00     0.032 H 
BRANCH  46  49
ATOM     49  C   LIG d   1       4.143  -1.164  -2.857  0.00  0.00    -0.047 A 
ATOM     50  C   LIG d   1       3.366  -0.574  -3.835  0.00  0.00    -0.059 A 
ATOM     51  C   LIG d   1       3.132   0.789  -3.803  0.00  0.00    -0.061 A 
ATOM     52  H   LIG d   1       2.940  -1.175  -4.624  0.00  0.00     0.062 H 
ATOM     53  C   LIG d   1       3.676   1.560  -2.793  0.00  0.00    -0.062 A 
ATOM     54  H   LIG d   1       2.525   1.252  -4.567  0.00  0.00     0.062 H 
ATOM     55  C   LIG d   1       4.453   0.968  -1.814  0.00  0.00    -0.061 A 
ATOM     56  H   LIG d   1       3.494   2.624  -2.766  0.00  0.00     0.062 H 
ATOM     57  C   LIG d   1       4.683  -0.395  -1.843  0.00  0.00    -0.059 A 
ATOM     58  H   LIG d   1       4.878   1.571  -1.024  0.00  0.00     0.062 H 
ATOM     59  H   LIG d   1       5.287  -0.858  -1.077  0.00  0.00     0.062 H 
ENDBRANCH  46  49
ENDBRANCH  43  46
ENDBRANCH  41  43
ENDBRANCH  40  41
ENDBRANCH  12  40
BRANCH   1  60
ATOM     60  C   LIG d   1       6.063   0.271  -6.232  0.00  0.00    -0.056 C 
ATOM     61  H   LIG d   1       6.164   0.546  -7.281  0.00  0.00     0.024 H 
ATOM     62  H   LIG d   1       5.383  -0.575  -6.141  0.00  0.00     0.024 H 
ATOM     63  H   LIG d   1       5.666   1.118  -5.671  0.00  0.00     0.024 H 
ENDBRANCH   1  60
BRANCH  22  64
ATOM     64  C   LIG d   1      10.380   1.576  -3.953  0.00  0.00    -0.056 C 
ATOM     65  H   LIG d   1       9.599   0.919  -3.569  0.00  0.00     0.024 H 
ATOM     66  H   LIG d   1      10.886   1.089  -4.786  0.00  0.00     0.024 H 
ATOM     67  H   LIG d   1      11.100   1.784  -3.161  0.00  0.00     0.024 H 
ENDBRANCH  22  64
TORSDOF 7
ENDMDL
MODEL 3
REMARK VINA RESULT:      -7.1      7.822     10.207
REMARK  7 active torsions:
REMARK  status: ('A' for Active; 'I' for Inactive)
REMARK    1  A    between atoms: C_1  and  C_2 
REMARK    2  A    between atoms: C_13  and  O_15 
REMARK    3  A    between atoms: O_15  and  C_16 
REMARK    4  A    between atoms: C_16  and  C_18 
REMARK    5  A    between atoms: C_18  and  C_19 
REMARK    6  A    between atoms: C_19  and  C_20 
REMARK    7  A    between atoms: C_34  and  C_35 
ROOT
ATOM      1  C   LIG d   1      10.301   5.431  -3.631  0.00  0.00     0.008 C 
ATOM      2  C   LIG d   1       9.324   6.549  -3.908  0.00  0.00    -0.044 C 
ATOM      3  C   LIG d   1       9.997   7.908  -3.739  0.00  0.00    -0.049 C 
ATOM      4  C   LIG d   1      10.847   8.093  -2.491  0.00  0.00    -0.029 C 
ATOM      5  H   LIG d   1      11.596   8.888  -2.774  0.00  0.00     0.031 H 
ATOM      6  C   LIG d   1      11.683   6.872  -2.139  0.00  0.00    -0.034 C 
ATOM      7  H   LIG d   1      12.492   6.798  -2.899  0.00  0.00     0.031 H 
ATOM      8  C   LIG d   1      10.863   5.612  -2.202  0.00  0.00    -0.029 C 
ATOM      9  H   LIG d   1      10.041   5.651  -1.476  0.00  0.00     0.031 H 
ATOM     10  C   LIG d   1      11.613   4.288  -1.992  0.00  0.00    -0.046 C 
ATOM     11  C   LIG d   1      10.639   3.243  -2.603  0.00  0.00    -0.015 C 
ATOM     12  C   LIG d   1       9.697   4.022  -3.555  0.00  0.00     0.109 C 
ATOM     13  H   LIG d   1       8.691   4.069  -3.145  0.00  0.00     0.074 H 
ATOM     14  C   LIG d   1      12.418   6.991  -0.807  0.00  0.00    -0.046 C 
ATOM     15  C   LIG d   1      11.438   7.321   0.322  0.00  0.00    -0.030 C 
ATOM     16  C   LIG d   1      10.808   8.652  -0.061  0.00  0.00    -0.060 C 
ATOM     17  C   LIG d   1      10.992   9.689   0.746  0.00  0.00    -0.019 C 
ATOM     18  C   LIG d   1      10.520  11.016   0.338  0.00  0.00     0.156 C 
ATOM     19  O   LIG d   1      10.300  11.895   1.148  0.00  0.00    -0.293 OA
ATOM     20  C   LIG d   1      10.323  11.228  -1.148  0.00  0.00     0.011 C 
ATOM     21  C   LIG d   1       9.513  10.070  -1.714  0.00  0.00    -0.037 C 
ATOM     22  C   LIG d   1      10.051   8.699  -1.351  0.00  0.00    -0.007 C 
ATOM     23  H   LIG d   1       8.971   6.452  -4.949  0.00  0.00     0.027 H 
ATOM     24  H   LIG d   1       8.449   6.452  -3.266  0.00  0.00     0.027 H 
ATOM     25  H   LIG d   1       9.220   8.685  -3.763  0.00  0.00     0.027 H 
ATOM     26  H   LIG d   1      10.631   8.101  -4.619  0.00  0.00     0.027 H 
ATOM     27  H   LIG d   1      11.755   4.100  -0.926  0.00  0.00     0.027 H 
ATOM     28  H   LIG d   1      12.569   4.288  -2.508  0.00  0.00     0.027 H 
ATOM     29  H   LIG d   1      10.059   2.768  -1.811  0.00  0.00     0.030 H 
ATOM     30  H   LIG d   1      11.197   2.490  -3.159  0.00  0.00     0.030 H 
ATOM     31  H   LIG d   1      12.921   6.050  -0.587  0.00  0.00     0.027 H 
ATOM     32  H   LIG d   1      13.163   7.785  -0.881  0.00  0.00     0.027 H 
ATOM     33  H   LIG d   1      11.980   7.429   1.262  0.00  0.00     0.031 H 
ATOM     34  H   LIG d   1      10.684   6.547   0.411  0.00  0.00     0.031 H 
ATOM     35  H   LIG d   1      11.488   9.556   1.698  0.00  0.00     0.065 H 
ATOM     36  H   LIG d   1      11.214  11.265  -1.601  0.00  0.00     0.035 H 
ATOM     37  H   LIG d   1       9.791  12.169  -1.315  0.00  0.00     0.035 H 
ATOM     38  H   LIG d   1       9.494  10.158  -2.802  0.00  0.00     0.028 H 
ATOM     39  H   LIG d   1       8.486  10.140  -1.347  0.00  0.00     0.028 H 
ENDROOT
BRANCH  12  40
ATOM     40  O   LIG d   1       9.690   3.414  -4.872  0.00  0.00    -0.461 OA
BRANCH  40  41
ATOM     41  C   LIG d   1       8.678   2.579  -5.152  0.00  0.00     0.308 C 
ATOM     42  O   LIG d   1       8.514   2.187  -6.283  0.00  0.00    -0.251 OA
BRANCH  41  43
ATOM     43  C   LIG d   1       7.746   2.129  -4.056  0.00  0.00     0.049 C 
ATOM     44  H   LIG d   1       8.151   2.430  -3.089  0.00  0.00     0.038 H 
ATOM     45  H   LIG d   1       6.768   2.588  -4.200  0.00  0.00     0.038 H 
BRANCH  43  46
ATOM     46  C   LIG d   1       7.607   0.607  -4.098  0.00  0.00    -0.018 C 
ATOM     47  H   LIG d   1       7.506   0.280  -5.133  0.00  0.00     0.032 H 
ATOM     48  H   LIG d   1       8.491   0.148  -3.656  0.00  0.00     0.032 H 
BRANCH  46  49
ATOM     49  C   LIG d   1       6.383   0.192  -3.320  0.00  0.00    -0.047 A 
ATOM     50  C   LIG d   1       6.064  -1.146  -3.197  0.00  0.00    -0.059 A 
ATOM     51  C   LIG d   1       4.941  -1.526  -2.484  0.00  0.00    -0.061 A 
ATOM     52  H   LIG d   1       6.688  -1.896  -3.658  0.00  0.00     0.062 H 
ATOM     53  C   LIG d   1       4.141  -0.566  -1.893  0.00  0.00    -0.062 A 
ATOM     54  H   LIG d   1       4.690  -2.572  -2.388  0.00  0.00     0.062 H 
ATOM     55  C   LIG d   1       4.462   0.773  -2.015  0.00  0.00    -0.061 A 
ATOM     56  H   LIG d   1       3.265  -0.862  -1.334  0.00  0.00     0.062 H 
ATOM     57  C   LIG d   1       5.587   1.152  -2.725  0.00  0.00    -0.059 A 
ATOM     58  H   LIG d   1       3.837   1.523  -1.553  0.00  0.00     0.062 H 
ATOM     59  H   LIG d   1       5.840   2.198  -2.817  0.00  0.00     0.062 H 
ENDBRANCH  46  49
ENDBRANCH  43  46
ENDBRANCH  41  43
ENDBRANCH  40  41
ENDBRANCH  12  40
BRANCH   1  60
ATOM     60  C   LIG d   1      11.405   5.422  -4.687  0.00  0.00    -0.056 C 
ATOM     61  H   LIG d   1      12.005   6.326  -4.594  0.00  0.00     0.024 H 
ATOM     62  H   LIG d   1      12.039   4.548  -4.541  0.00  0.00     0.024 H 
ATOM     63  H   LIG d   1      10.957   5.383  -5.680  0.00  0.00     0.024 H 
ENDBRANCH   1  60
BRANCH  22  64
ATOM     64  C   LIG d   1       8.791   7.856  -1.113  0.00  0.00    -0.056 C 
ATOM     65  H   LIG d   1       9.059   6.946  -0.577  0.00  0.00     0.024 H 
ATOM     66  H   LIG d   1       8.077   8.429  -0.522  0.00  0.00     0.024 H 
ATOM     67  H   LIG d   1       8.343   7.594  -2.072  0.00  0.00     0.024 H 
ENDBRANCH  22  64
TORSDOF 7
ENDMDL
MODEL 4
REMARK VINA RESULT:      -7.0      2.211      2.793
REMARK  7 active torsions:
REMARK  status: ('A' for Active; 'I' for Inactive)
REMARK    1  A    between atoms: C_1  and  C_2 
REMARK    2  A    between atoms: C_13  and  O_15 
REMARK    3  A    between atoms: O_15  and  C_16 
REMARK    4  A    between atoms: C_16  and  C_18 
REMARK    5  A    between atoms: C_18  and  C_19 
REMARK    6  A    between atoms: C_19  and  C_20 
REMARK    7  A    between atoms: C_34  and  C_35 
ROOT
ATOM      1  C   LIG d   1       5.833  -2.018  -6.212  0.00  0.00     0.008 C 
ATOM      2  C   LIG d   1       4.700  -2.957  -5.876  0.00  0.00    -0.044 C 
ATOM      3  C   LIG d   1       5.189  -4.095  -4.985  0.00  0.00    -0.049 C 
ATOM      4  C   LIG d   1       6.483  -4.776  -5.404  0.00  0.00    -0.029 C 
ATOM      5  H   LIG d   1       6.907  -5.193  -4.445  0.00  0.00     0.031 H 
ATOM      6  C   LIG d   1       7.541  -3.809  -5.913  0.00  0.00    -0.034 C 
ATOM      7  H   LIG d   1       7.914  -3.238  -5.034  0.00  0.00     0.031 H 
ATOM      8  C   LIG d   1       6.958  -2.830  -6.896  0.00  0.00    -0.029 C 
ATOM      9  H   LIG d   1       6.563  -3.355  -7.774  0.00  0.00     0.031 H 
ATOM     10  C   LIG d   1       7.889  -1.714  -7.394  0.00  0.00    -0.046 C 
ATOM     11  C   LIG d   1       6.891  -0.655  -7.939  0.00  0.00    -0.015 C 
ATOM     12  C   LIG d   1       5.524  -0.954  -7.275  0.00  0.00     0.109 C 
ATOM     13  H   LIG d   1       4.821  -1.349  -8.004  0.00  0.00     0.074 H 
ATOM     14  C   LIG d   1       8.782  -4.493  -6.479  0.00  0.00    -0.046 C 
ATOM     15  C   LIG d   1       8.394  -5.495  -7.570  0.00  0.00    -0.030 C 
ATOM     16  C   LIG d   1       7.489  -6.510  -6.887  0.00  0.00    -0.060 C 
ATOM     17  C   LIG d   1       7.883  -7.776  -6.848  0.00  0.00    -0.019 C 
ATOM     18  C   LIG d   1       7.106  -8.753  -6.078  0.00  0.00     0.156 C 
ATOM     19  O   LIG d   1       7.166  -9.944  -6.307  0.00  0.00    -0.293 OA
ATOM     20  C   LIG d   1       6.223  -8.190  -4.983  0.00  0.00     0.011 C 
ATOM     21  C   LIG d   1       5.405  -7.036  -5.544  0.00  0.00    -0.037 C 
ATOM     22  C   LIG d   1       6.226  -5.991  -6.275  0.00  0.00    -0.007 C 
ATOM     23  H   LIG d   1       3.926  -2.387  -5.334  0.00  0.00     0.027 H 
ATOM     24  H   LIG d   1       4.238  -3.332  -6.788  0.00  0.00     0.027 H 
ATOM     25  H   LIG d   1       4.392  -4.849  -4.917  0.00  0.00     0.027 H 
ATOM     26  H   LIG d   1       5.318  -3.713  -3.959  0.00  0.00     0.027 H 
ATOM     27  H   LIG d   1       8.526  -2.086  -8.198  0.00  0.00     0.027 H 
ATOM     28  H   LIG d   1       8.493  -1.311  -6.587  0.00  0.00     0.027 H 
ATOM     29  H   LIG d   1       6.807  -0.746  -9.023  0.00  0.00     0.030 H 
ATOM     30  H   LIG d   1       7.226   0.348  -7.675  0.00  0.00     0.030 H 
ATOM     31  H   LIG d   1       9.449  -3.741  -6.899  0.00  0.00     0.027 H 
ATOM     32  H   LIG d   1       9.298  -5.019  -5.674  0.00  0.00     0.027 H 
ATOM     33  H   LIG d   1       9.286  -5.995  -7.947  0.00  0.00     0.031 H 
ATOM     34  H   LIG d   1       7.875  -4.996  -8.380  0.00  0.00     0.031 H 
ATOM     35  H   LIG d   1       8.773  -8.086  -7.380  0.00  0.00     0.065 H 
ATOM     36  H   LIG d   1       6.794  -7.861  -4.231  0.00  0.00     0.035 H 
ATOM     37  H   LIG d   1       5.555  -8.974  -4.615  0.00  0.00     0.035 H 
ATOM     38  H   LIG d   1       4.879  -6.551  -4.721  0.00  0.00     0.028 H 
ATOM     39  H   LIG d   1       4.662  -7.432  -6.241  0.00  0.00     0.028 H 
ENDROOT
BRANCH  12  40
ATOM     40  O   LIG d   1       4.995   0.240  -6.642  0.00  0.00    -0.461 OA
BRANCH  40  41
ATOM     41  C   LIG d   1       3.730   0.576  -6.938  0.00  0.00     0.308 C 
ATOM     42  O   LIG d   1       3.505   1.336  -7.850  0.00  0.00    -0.251 OA
BRANCH  41  43
ATOM     43  C   LIG d   1       2.590   0.005  -6.133  0.00  0.00     0.049 C 
ATOM     44  H   LIG d   1       1.679   0.021  -6.732  0.00  0.00     0.038 H 
ATOM     45  H   LIG d   1       2.823  -1.021  -5.851  0.00  0.00     0.038 H 
BRANCH  43  46
ATOM     46  C   LIG d   1       2.386   0.847  -4.872  0.00  0.00    -0.018 C 
ATOM     47  H   LIG d   1       2.767   1.854  -5.041  0.00  0.00     0.032 H 
ATOM     48  H   LIG d   1       1.323   0.895  -4.635  0.00  0.00     0.032 H 
BRANCH  46  49
ATOM     49  C   LIG d   1       3.129   0.216  -3.722  0.00  0.00    -0.047 A 
ATOM     50  C   LIG d   1       3.972   0.983  -2.940  0.00  0.00    -0.059 A 
ATOM     51  C   LIG d   1       4.654   0.404  -1.886  0.00  0.00    -0.061 A 
ATOM     52  H   LIG d   1       4.099   2.034  -3.153  0.00  0.00     0.062 H 
ATOM     53  C   LIG d   1       4.491  -0.941  -1.612  0.00  0.00    -0.062 A 
ATOM     54  H   LIG d   1       5.313   1.003  -1.275  0.00  0.00     0.062 H 
ATOM     55  C   LIG d   1       3.646  -1.708  -2.394  0.00  0.00    -0.061 A 
ATOM     56  H   LIG d   1       5.022  -1.394  -0.788  0.00  0.00     0.062 H 
ATOM     57  C   LIG d   1       2.961  -1.128  -3.446  0.00  0.00    -0.059 A 
ATOM     58  H   LIG d   1       3.519  -2.759  -2.180  0.00  0.00     0.062 H 
ATOM     59  H   LIG d   1       2.299  -1.726  -4.054  0.00  0.00     0.062 H 
ENDBRANCH  46  49
ENDBRANCH  43  46
ENDBRANCH  41  43
ENDBRANCH  40  41
ENDBRANCH  12  40
BRANCH   1  60
ATOM     60  C   LIG d   1       6.321  -1.306  -4.951  0.00  0.00    -0.056 C 
ATOM     61  H   LIG d   1       5.471  -1.086  -4.306  0.00  0.00     0.024 H 
ATOM     62  H   LIG d   1       7.024  -1.948  -4.421  0.00  0.00     0.024 H 
ATOM     63  H   LIG d   1       6.817  -0.376  -5.228  0.00  0.00     0.024 H 
ENDBRANCH   1  60
BRANCH  22  64
ATOM     64  C   LIG d   1       5.339  -5.582  -7.459  0.00  0.00    -0.056 C 
ATOM     65  H   LIG d   1       4.400  -6.133  -7.416  0.00  0.00     0.024 H 
ATOM     66  H   LIG d   1       5.135  -4.512  -7.407  0.00  0.00     0.024 H 
ATOM     67  H   LIG d   1       5.852  -5.810  -8.393  0.00  0.00     0.024 H 
ENDBRANCH  22  64
TORSDOF 7
ENDMDL
MODEL 5
REMARK VINA RESULT:      -7.0      3.555      7.396
REMARK  7 active torsions:
REMARK  status: ('A' for Active; 'I' for Inactive)
REMARK    1  A    between atoms: C_1  and  C_2 
REMARK    2  A    between atoms: C_13  and  O_15 
REMARK    3  A    between atoms: O_15  and  C_16 
REMARK    4  A    between atoms: C_16  and  C_18 
REMARK    5  A    between atoms: C_18  and  C_19 
REMARK    6  A    between atoms: C_19  and  C_20 
REMARK    7  A    between atoms: C_34  and  C_35 
ROOT
ATOM      1  C   LIG d   1       4.832   0.166  -8.724  0.00  0.00     0.008 C 
ATOM      2  C   LIG d   1       5.720  -0.292  -9.856  0.00  0.00    -0.044 C 
ATOM      3  C   LIG d   1       5.096   0.053 -11.205  0.00  0.00    -0.049 C 
ATOM      4  C   LIG d   1       3.621  -0.278 -11.373  0.00  0.00    -0.029 C 
ATOM      5  H   LIG d   1       3.256   0.446 -12.159  0.00  0.00     0.031 H 
ATOM      6  C   LIG d   1       2.785   0.028 -10.140  0.00  0.00    -0.034 C 
ATOM      7  H   LIG d   1       2.714   1.135 -10.058  0.00  0.00     0.031 H 
ATOM      8  C   LIG d   1       3.443  -0.494  -8.892  0.00  0.00    -0.029 C 
ATOM      9  H   LIG d   1       3.548  -1.585  -8.939  0.00  0.00     0.031 H 
ATOM     10  C   LIG d   1       2.769  -0.143  -7.557  0.00  0.00    -0.046 C 
ATOM     11  C   LIG d   1       3.911  -0.369  -6.528  0.00  0.00    -0.015 C 
ATOM     12  C   LIG d   1       5.239  -0.311  -7.323  0.00  0.00     0.109 C 
ATOM     13  H   LIG d   1       5.694  -1.297  -7.383  0.00  0.00     0.074 H 
ATOM     14  C   LIG d   1       1.337  -0.442 -10.243  0.00  0.00    -0.046 C 
ATOM     15  C   LIG d   1       1.278  -1.935 -10.582  0.00  0.00    -0.030 C 
ATOM     16  C   LIG d   1       1.983  -2.076 -11.923  0.00  0.00    -0.060 C 
ATOM     17  C   LIG d   1       1.284  -2.533 -12.954  0.00  0.00    -0.019 C 
ATOM     18  C   LIG d   1       1.890  -2.549 -14.290  0.00  0.00     0.156 C 
ATOM     19  O   LIG d   1       1.488  -3.286 -15.168  0.00  0.00    -0.293 OA
ATOM     20  C   LIG d   1       3.047  -1.597 -14.510  0.00  0.00     0.011 C 
ATOM     21  C   LIG d   1       4.039  -1.743 -13.365  0.00  0.00    -0.037 C 
ATOM     22  C   LIG d   1       3.416  -1.650 -11.986  0.00  0.00    -0.007 C 
ATOM     23  H   LIG d   1       6.690   0.227  -9.768  0.00  0.00     0.027 H 
ATOM     24  H   LIG d   1       5.922  -1.359  -9.768  0.00  0.00     0.027 H 
ATOM     25  H   LIG d   1       5.670  -0.455 -11.993  0.00  0.00     0.027 H 
ATOM     26  H   LIG d   1       5.231   1.130 -11.394  0.00  0.00     0.027 H 
ATOM     27  H   LIG d   1       1.940  -0.827  -7.362  0.00  0.00     0.027 H 
ATOM     28  H   LIG d   1       2.422   0.886  -7.546  0.00  0.00     0.027 H 
ATOM     29  H   LIG d   1       3.800  -1.346  -6.057  0.00  0.00     0.030 H 
ATOM     30  H   LIG d   1       3.893   0.414  -5.769  0.00  0.00     0.030 H 
ATOM     31  H   LIG d   1       0.832  -0.266  -9.295  0.00  0.00     0.027 H 
ATOM     32  H   LIG d   1       0.833   0.125 -11.028  0.00  0.00     0.027 H 
ATOM     33  H   LIG d   1       0.239  -2.251 -10.679  0.00  0.00     0.031 H 
ATOM     34  H   LIG d   1       1.778  -2.519  -9.818  0.00  0.00     0.031 H 
ATOM     35  H   LIG d   1       0.273  -2.892 -12.811  0.00  0.00     0.065 H 
ATOM     36  H   LIG d   1       2.704  -0.657 -14.537  0.00  0.00     0.035 H 
ATOM     37  H   LIG d   1       3.537  -1.831 -15.459  0.00  0.00     0.035 H 
ATOM     38  H   LIG d   1       4.794  -0.961 -13.458  0.00  0.00     0.028 H 
ATOM     39  H   LIG d   1       4.538  -2.712 -13.449  0.00  0.00     0.028 H 
ENDROOT
BRANCH  12  40
ATOM     40  O   LIG d   1       6.151   0.643  -6.721  0.00  0.00    -0.461 OA
BRANCH  40  41
ATOM     41  C   LIG d   1       7.080   0.153  -5.884  0.00  0.00     0.308 C 
ATOM     42  O   LIG d   1       7.776  -0.772  -6.230  0.00  0.00    -0.251 OA
BRANCH  41  43
ATOM     43  C   LIG d   1       7.255   0.759  -4.515  0.00  0.00     0.049 C 
ATOM     44  H   LIG d   1       8.266   1.156  -4.420  0.00  0.00     0.038 H 
ATOM     45  H   LIG d   1       6.533   1.563  -4.379  0.00  0.00     0.038 H 
BRANCH  43  46
ATOM     46  C   LIG d   1       7.028  -0.316  -3.450  0.00  0.00    -0.018 C 
ATOM     47  H   LIG d   1       7.408  -1.272  -3.813  0.00  0.00     0.032 H 
ATOM     48  H   LIG d   1       7.553  -0.039  -2.536  0.00  0.00     0.032 H 
BRANCH  46  49
ATOM     49  C   LIG d   1       5.552  -0.438  -3.166  0.00  0.00    -0.047 A 
ATOM     50  C   LIG d   1       4.958  -1.685  -3.121  0.00  0.00    -0.059 A 
ATOM     51  C   LIG d   1       3.605  -1.796  -2.861  0.00  0.00    -0.061 A 
ATOM     52  H   LIG d   1       5.550  -2.572  -3.289  0.00  0.00     0.062 H 
ATOM     53  C   LIG d   1       2.847  -0.661  -2.644  0.00  0.00    -0.062 A 
ATOM     54  H   LIG d   1       3.139  -2.770  -2.826  0.00  0.00     0.062 H 
ATOM     55  C   LIG d   1       3.442   0.587  -2.689  0.00  0.00    -0.061 A 
ATOM     56  H   LIG d   1       1.790  -0.747  -2.440  0.00  0.00     0.062 H 
ATOM     57  C   LIG d   1       4.796   0.698  -2.944  0.00  0.00    -0.059 A 
ATOM     58  H   LIG d   1       2.849   1.474  -2.520  0.00  0.00     0.062 H 
ATOM     59  H   LIG d   1       5.262   1.671  -2.976  0.00  0.00     0.062 H 
ENDBRANCH  46  49
ENDBRANCH  43  46
ENDBRANCH  41  43
ENDBRANCH  40  41
ENDBRANCH  12  40
BRANCH   1  60
ATOM     60  C   LIG d   1       4.746   1.691  -8.704  0.00  0.00    -0.056 C 
ATOM     61  H   LIG d   1       5.751   2.112  -8.715  0.00  0.00     0.024 H 
ATOM     62  H   LIG d   1       4.198   2.036  -9.580  0.00  0.00     0.024 H 
ATOM     63  H   LIG d   1       4.227   2.013  -7.801  0.00  0.00     0.024 H 
ENDBRANCH   1  60
BRANCH  22  64
ATOM     64  C   LIG d   1       4.185  -2.689 -11.159  0.00  0.00    -0.056 C 
ATOM     65  H   LIG d   1       5.158  -2.869 -11.616  0.00  0.00     0.024 H 
ATOM     66  H   LIG d   1       4.324  -2.316 -10.145  0.00  0.00     0.024 H 
ATOM     67  H   LIG d   1       3.620  -3.621 -11.130  0.00  0.00     0.024 H 
ENDBRANCH  22  64
TORSDOF 7
ENDMDL
MODEL 6
REMARK VINA RESULT:      -6.8      3.286      6.656
REMARK  7 active torsions:
REMARK  status: ('A' for Active; 'I' for Inactive)
REMARK    1  A    between atoms: C_1  and  C_2 
REMARK    2  A    between atoms: C_13  and  O_15 
REMARK    3  A    between atoms: O_15  and  C_16 
REMARK    4  A    between atoms: C_16  and  C_18 
REMARK    5  A    between atoms: C_18  and  C_19 
REMARK    6  A    between atoms: C_19  and  C_20 
REMARK    7  A    between atoms: C_34  and  C_35 
ROOT
ATOM      1  C   LIG d   1       4.127  -0.628  -7.652  0.00  0.00     0.008 C 
ATOM      2  C   LIG d   1       4.229  -2.135  -7.625  0.00  0.00    -0.044 C 
ATOM      3  C   LIG d   1       4.945  -2.650  -8.870  0.00  0.00    -0.049 C 
ATOM      4  C   LIG d   1       4.499  -2.061 -10.200  0.00  0.00    -0.029 C 
ATOM      5  H   LIG d   1       5.399  -2.168 -10.873  0.00  0.00     0.031 H 
ATOM      6  C   LIG d   1       4.228  -0.566 -10.142  0.00  0.00    -0.034 C 
ATOM      7  H   LIG d   1       5.211  -0.057 -10.040  0.00  0.00     0.031 H 
ATOM      8  C   LIG d   1       3.389  -0.210  -8.945  0.00  0.00    -0.029 C 
ATOM      9  H   LIG d   1       2.412  -0.705  -8.997  0.00  0.00     0.031 H 
ATOM     10  C   LIG d   1       3.144   1.286  -8.693  0.00  0.00    -0.046 C 
ATOM     11  C   LIG d   1       2.723   1.316  -7.197  0.00  0.00    -0.015 C 
ATOM     12  C   LIG d   1       3.242  -0.000  -6.567  0.00  0.00     0.109 C 
ATOM     13  H   LIG d   1       2.414  -0.665  -6.331  0.00  0.00     0.074 H 
ATOM     14  C   LIG d   1       3.633   0.004 -11.427  0.00  0.00    -0.046 C 
ATOM     15  C   LIG d   1       2.367  -0.763 -11.820  0.00  0.00    -0.030 C 
ATOM     16  C   LIG d   1       2.811  -2.203 -12.030  0.00  0.00    -0.060 C 
ATOM     17  C   LIG d   1       2.662  -2.737 -13.235  0.00  0.00    -0.019 C 
ATOM     18  C   LIG d   1       3.207  -4.071 -13.509  0.00  0.00     0.156 C 
ATOM     19  O   LIG d   1       2.785  -4.762 -14.414  0.00  0.00    -0.293 OA
ATOM     20  C   LIG d   1       4.323  -4.536 -12.597  0.00  0.00     0.011 C 
ATOM     21  C   LIG d   1       3.914  -4.307 -11.149  0.00  0.00    -0.037 C 
ATOM     22  C   LIG d   1       3.422  -2.903 -10.857  0.00  0.00    -0.007 C 
ATOM     23  H   LIG d   1       4.810  -2.427  -6.733  0.00  0.00     0.027 H 
ATOM     24  H   LIG d   1       3.240  -2.577  -7.518  0.00  0.00     0.027 H 
ATOM     25  H   LIG d   1       4.836  -3.743  -8.906  0.00  0.00     0.027 H 
ATOM     26  H   LIG d   1       6.026  -2.468  -8.759  0.00  0.00     0.027 H 
ATOM     27  H   LIG d   1       2.330   1.647  -9.325  0.00  0.00     0.027 H 
ATOM     28  H   LIG d   1       4.044   1.870  -8.864  0.00  0.00     0.027 H 
ATOM     29  H   LIG d   1       1.637   1.366  -7.117  0.00  0.00     0.030 H 
ATOM     30  H   LIG d   1       3.172   2.174  -6.698  0.00  0.00     0.030 H 
ATOM     31  H   LIG d   1       3.388   1.054 -11.277  0.00  0.00     0.027 H 
ATOM     32  H   LIG d   1       4.369  -0.080 -12.228  0.00  0.00     0.027 H 
ATOM     33  H   LIG d   1       1.968  -0.363 -12.753  0.00  0.00     0.031 H 
ATOM     34  H   LIG d   1       1.622  -0.698 -11.036  0.00  0.00     0.031 H 
ATOM     35  H   LIG d   1       2.142  -2.191 -14.012  0.00  0.00     0.065 H 
ATOM     36  H   LIG d   1       5.154  -4.016 -12.796  0.00  0.00     0.035 H 
ATOM     37  H   LIG d   1       4.512  -5.600 -12.766  0.00  0.00     0.035 H 
ATOM     38  H   LIG d   1       4.773  -4.514 -10.509  0.00  0.00     0.028 H 
ATOM     39  H   LIG d   1       3.116  -5.008 -10.890  0.00  0.00     0.028 H 
ENDROOT
BRANCH  12  40
ATOM     40  O   LIG d   1       4.031   0.280  -5.383  0.00  0.00    -0.461 OA
BRANCH  40  41
ATOM     41  C   LIG d   1       3.367   0.410  -4.224  0.00  0.00     0.308 C 
ATOM     42  O   LIG d   1       3.279   1.493  -3.697  0.00  0.00    -0.251 OA
BRANCH  41  43
ATOM     43  C   LIG d   1       2.731  -0.796  -3.580  0.00  0.00     0.049 C 
ATOM     44  H   LIG d   1       1.805  -0.499  -3.088  0.00  0.00     0.038 H 
ATOM     45  H   LIG d   1       2.515  -1.543  -4.344  0.00  0.00     0.038 H 
BRANCH  43  46
ATOM     46  C   LIG d   1       3.691  -1.387  -2.546  0.00  0.00    -0.018 C 
ATOM     47  H   LIG d   1       4.057  -0.593  -1.895  0.00  0.00     0.032 H 
ATOM     48  H   LIG d   1       3.168  -2.134  -1.950  0.00  0.00     0.032 H 
BRANCH  46  49
ATOM     49  C   LIG d   1       4.856  -2.032  -3.253  0.00  0.00    -0.047 A 
ATOM     50  C   LIG d   1       4.640  -3.088  -4.117  0.00  0.00    -0.059 A 
ATOM     51  C   LIG d   1       5.708  -3.681  -4.765  0.00  0.00    -0.061 A 
ATOM     52  H   LIG d   1       3.638  -3.453  -4.287  0.00  0.00     0.062 H 
ATOM     53  C   LIG d   1       6.992  -3.215  -4.549  0.00  0.00    -0.062 A 
ATOM     54  H   LIG d   1       5.541  -4.507  -5.441  0.00  0.00     0.062 H 
ATOM     55  C   LIG d   1       7.208  -2.157  -3.685  0.00  0.00    -0.061 A 
ATOM     56  H   LIG d   1       7.827  -3.676  -5.056  0.00  0.00     0.062 H 
ATOM     57  C   LIG d   1       6.139  -1.562  -3.041  0.00  0.00    -0.059 A 
ATOM     58  H   LIG d   1       8.210  -1.793  -3.516  0.00  0.00     0.062 H 
ATOM     59  H   LIG d   1       6.306  -0.734  -2.369  0.00  0.00     0.062 H 
ENDBRANCH  46  49
ENDBRANCH  43  46
ENDBRANCH  41  43
ENDBRANCH  40  41
ENDBRANCH  12  40
BRANCH   1  60
ATOM     60  C   LIG d   1       5.518  -0.003  -7.555  0.00  0.00    -0.056 C 
ATOM     61  H   LIG d   1       6.067  -0.463  -6.734  0.00  0.00     0.024 H 
ATOM     62  H   LIG d   1       6.055  -0.165  -8.488  0.00  0.00     0.024 H 
ATOM     63  H   LIG d   1       5.422   1.068  -7.373  0.00  0.00     0.024 H 
ENDBRANCH   1  60
BRANCH  22  64
ATOM     64  C   LIG d   1       2.271  -3.111  -9.864  0.00  0.00    -0.056 C 
ATOM     65  H   LIG d   1       2.608  -2.855  -8.859  0.00  0.00     0.024 H 
ATOM     66  H   LIG d   1       1.433  -2.472 -10.139  0.00  0.00     0.024 H 
ATOM     67  H   LIG d   1       1.956  -4.154  -9.886  0.00  0.00     0.024 H 
ENDBRANCH  22  64
TORSDOF 7
ENDMDL
MODEL 7
REMARK VINA RESULT:      -6.7      3.425      6.001
REMARK  7 active torsions:
REMARK  status: ('A' for Active; 'I' for Inactive)
REMARK    1  A    between atoms: C_1  and  C_2 
REMARK    2  A    between atoms: C_13  and  O_15 
REMARK    3  A    between atoms: O_15  and  C_16 
REMARK    4  A    between atoms: C_16  and  C_18 
REMARK    5  A    between atoms: C_18  and  C_19 
REMARK    6  A    between atoms: C_19  and  C_20 
REMARK    7  A    between atoms: C_34  and  C_35 
ROOT
ATOM      1  C   LIG d   1       5.083  -2.750  -8.090  0.00  0.00     0.008 C 
ATOM      2  C   LIG d   1       5.229  -1.247  -8.093  0.00  0.00    -0.044 C 
ATOM      3  C   LIG d   1       6.132  -0.790  -6.951  0.00  0.00    -0.049 C 
ATOM      4  C   LIG d   1       5.862  -1.405  -5.586  0.00  0.00    -0.029 C 
ATOM      5  H   LIG d   1       6.852  -1.344  -5.048  0.00  0.00     0.031 H 
ATOM      6  C   LIG d   1       5.537  -2.890  -5.643  0.00  0.00    -0.034 C 
ATOM      7  H   LIG d   1       6.478  -3.423  -5.898  0.00  0.00     0.031 H 
ATOM      8  C   LIG d   1       4.524  -3.186  -6.715  0.00  0.00    -0.029 C 
ATOM      9  H   LIG d   1       3.581  -2.665  -6.510  0.00  0.00     0.031 H 
ATOM     10  C   LIG d   1       4.198  -4.666  -6.968  0.00  0.00    -0.046 C 
ATOM     11  C   LIG d   1       3.567  -4.640  -8.387  0.00  0.00    -0.015 C 
ATOM     12  C   LIG d   1       4.032  -3.320  -9.052  0.00  0.00     0.109 C 
ATOM     13  H   LIG d   1       3.200  -2.625  -9.149  0.00  0.00     0.074 H 
ATOM     14  C   LIG d   1       5.114  -3.480  -4.301  0.00  0.00    -0.046 C 
ATOM     15  C   LIG d   1       3.943  -2.690  -3.710  0.00  0.00    -0.030 C 
ATOM     16  C   LIG d   1       4.459  -1.270  -3.530  0.00  0.00    -0.060 C 
ATOM     17  C   LIG d   1       4.501  -0.769  -2.302  0.00  0.00    -0.019 C 
ATOM     18  C   LIG d   1       5.122   0.541  -2.076  0.00  0.00     0.156 C 
ATOM     19  O   LIG d   1       4.857   1.216  -1.102  0.00  0.00    -0.293 OA
ATOM     20  C   LIG d   1       6.111   1.001  -3.126  0.00  0.00     0.011 C 
ATOM     21  C   LIG d   1       5.492   0.827  -4.506  0.00  0.00    -0.037 C 
ATOM     22  C   LIG d   1       4.918  -0.553  -4.760  0.00  0.00    -0.007 C 
ATOM     23  H   LIG d   1       5.685  -0.945  -9.052  0.00  0.00     0.027 H 
ATOM     24  H   LIG d   1       4.250  -0.774  -8.045  0.00  0.00     0.027 H 
ATOM     25  H   LIG d   1       6.064   0.304  -6.872  0.00  0.00     0.027 H 
ATOM     26  H   LIG d   1       7.180  -0.999  -7.222  0.00  0.00     0.027 H 
ATOM     27  H   LIG d   1       3.471  -5.022  -6.234  0.00  0.00     0.027 H 
ATOM     28  H   LIG d   1       5.093  -5.280  -6.943  0.00  0.00     0.027 H 
ATOM     29  H   LIG d   1       2.479  -4.656  -8.311  0.00  0.00     0.030 H 
ATOM     30  H   LIG d   1       3.912  -5.495  -8.968  0.00  0.00     0.030 H 
ATOM     31  H   LIG d   1       4.816  -4.519  -4.441  0.00  0.00     0.027 H 
ATOM     32  H   LIG d   1       5.959  -3.441  -3.612  0.00  0.00     0.027 H 
ATOM     33  H   LIG d   1       3.669  -3.106  -2.740  0.00  0.00     0.031 H 
ATOM     34  H   LIG d   1       3.091  -2.711  -4.380  0.00  0.00     0.031 H 
ATOM     35  H   LIG d   1       4.080  -1.322  -1.473  0.00  0.00     0.065 H 
ATOM     36  H   LIG d   1       6.945   0.452  -3.063  0.00  0.00     0.035 H 
ATOM     37  H   LIG d   1       6.357   2.054  -2.959  0.00  0.00     0.035 H 
ATOM     38  H   LIG d   1       6.256   1.029  -5.258  0.00  0.00     0.028 H 
ATOM     39  H   LIG d   1       4.688   1.558  -4.630  0.00  0.00     0.028 H 
ENDROOT
BRANCH  12  40
ATOM     40  O   LIG d   1       4.635  -3.587 -10.344  0.00  0.00    -0.461 OA
BRANCH  40  41
ATOM     41  C   LIG d   1       3.971  -3.154 -11.427  0.00  0.00     0.308 C 
ATOM     42  O   LIG d   1       3.141  -3.861 -11.949  0.00  0.00    -0.251 OA
BRANCH  41  43
ATOM     43  C   LIG d   1       4.259  -1.787 -11.992  0.00  0.00     0.049 C 
ATOM     44  H   LIG d   1       5.043  -1.309 -11.404  0.00  0.00     0.038 H 
ATOM     45  H   LIG d   1       4.586  -1.883 -13.027  0.00  0.00     0.038 H 
BRANCH  43  46
ATOM     46  C   LIG d   1       2.990  -0.935 -11.936  0.00  0.00    -0.018 C 
ATOM     47  H   LIG d   1       2.849  -0.430 -12.892  0.00  0.00     0.032 H 
ATOM     48  H   LIG d   1       2.131  -1.574 -11.731  0.00  0.00     0.032 H 
BRANCH  46  49
ATOM     49  C   LIG d   1       3.124   0.094 -10.841  0.00  0.00    -0.047 A 
ATOM     50  C   LIG d   1       2.262   0.069  -9.761  0.00  0.00    -0.059 A 
ATOM     51  C   LIG d   1       2.385   1.012  -8.758  0.00  0.00    -0.061 A 
ATOM     52  H   LIG d   1       1.493  -0.686  -9.700  0.00  0.00     0.062 H 
ATOM     53  C   LIG d   1       3.370   1.979  -8.834  0.00  0.00    -0.062 A 
ATOM     54  H   LIG d   1       1.711   0.994  -7.914  0.00  0.00     0.062 H 
ATOM     55  C   LIG d   1       4.233   2.003  -9.915  0.00  0.00    -0.061 A 
ATOM     56  H   LIG d   1       3.467   2.715  -8.051  0.00  0.00     0.062 H 
ATOM     57  C   LIG d   1       4.113   1.056 -10.916  0.00  0.00    -0.059 A 
ATOM     58  H   LIG d   1       5.002   2.758  -9.975  0.00  0.00     0.062 H 
ATOM     59  H   LIG d   1       4.788   1.073 -11.758  0.00  0.00     0.062 H 
ENDBRANCH  46  49
ENDBRANCH  43  46
ENDBRANCH  41  43
ENDBRANCH  40  41
ENDBRANCH  12  40
BRANCH   1  60
ATOM     60  C   LIG d   1       6.424  -3.412  -8.402  0.00  0.00    -0.056 C 
ATOM     61  H   LIG d   1       6.274  -4.478  -8.570  0.00  0.00     0.024 H 
ATOM     62  H   LIG d   1       6.853  -2.960  -9.296  0.00  0.00     0.024 H 
ATOM     63  H   LIG d   1       7.104  -3.268  -7.562  0.00  0.00     0.024 H 
ENDBRANCH   1  60
BRANCH  22  64
ATOM     64  C   LIG d   1       3.644  -0.283  -5.572  0.00  0.00    -0.056 C 
ATOM     65  H   LIG d   1       3.294   0.729  -5.371  0.00  0.00     0.024 H 
ATOM     66  H   LIG d   1       3.861  -0.388  -6.634  0.00  0.00     0.024 H 
ATOM     67  H   LIG d   1       2.872  -0.998  -5.285  0.00  0.00     0.024 H 
ENDBRANCH  22  64
TORSDOF 7
ENDMDL
MODEL 8
REMARK VINA RESULT:      -6.4      3.841      7.520
REMARK  7 active torsions:
REMARK  status: ('A' for Active; 'I' for Inactive)
REMARK    1  A    between atoms: C_1  and  C_2 
REMARK    2  A    between atoms: C_13  and  O_15 
REMARK    3  A    between atoms: O_15  and  C_16 
REMARK    4  A    between atoms: C_16  and  C_18 
REMARK    5  A    between atoms: C_18  and  C_19 
REMARK    6  A    between atoms: C_19  and  C_20 
REMARK    7  A    between atoms: C_34  and  C_35 
ROOT
ATOM      1  C   LIG d   1       6.144  -4.611  -5.964  0.00  0.00     0.008 C 
ATOM      2  C   LIG d   1       4.654  -4.405  -5.834  0.00  0.00    -0.044 C 
ATOM      3  C   LIG d   1       4.293  -2.936  -6.032  0.00  0.00    -0.049 C 
ATOM      4  C   LIG d   1       5.148  -1.922  -5.288  0.00  0.00    -0.029 C 
ATOM      5  H   LIG d   1       5.068  -0.978  -5.902  0.00  0.00     0.031 H 
ATOM      6  C   LIG d   1       6.630  -2.263  -5.284  0.00  0.00    -0.034 C 
ATOM      7  H   LIG d   1       7.009  -2.095  -6.316  0.00  0.00     0.031 H 
ATOM      8  C   LIG d   1       6.857  -3.707  -4.931  0.00  0.00    -0.029 C 
ATOM      9  H   LIG d   1       6.482  -3.921  -3.922  0.00  0.00     0.031 H 
ATOM     10  C   LIG d   1       8.303  -4.221  -5.014  0.00  0.00    -0.046 C 
ATOM     11  C   LIG d   1       8.114  -5.761  -5.095  0.00  0.00    -0.015 C 
ATOM     12  C   LIG d   1       6.661  -6.003  -5.574  0.00  0.00     0.109 C 
ATOM     13  H   LIG d   1       6.055  -6.413  -4.769  0.00  0.00     0.074 H 
ATOM     14  C   LIG d   1       7.474  -1.338  -4.412  0.00  0.00    -0.046 C 
ATOM     15  C   LIG d   1       6.924  -1.295  -2.983  0.00  0.00    -0.030 C 
ATOM     16  C   LIG d   1       5.505  -0.761  -3.110  0.00  0.00    -0.060 C 
ATOM     17  C   LIG d   1       5.208   0.383  -2.507  0.00  0.00    -0.019 C 
ATOM     18  C   LIG d   1       3.893   0.996  -2.724  0.00  0.00     0.156 C 
ATOM     19  O   LIG d   1       3.419   1.790  -1.937  0.00  0.00    -0.293 OA
ATOM     20  C   LIG d   1       3.162   0.581  -3.984  0.00  0.00     0.011 C 
ATOM     21  C   LIG d   1       3.176  -0.937  -4.092  0.00  0.00    -0.037 C 
ATOM     22  C   LIG d   1       4.551  -1.559  -3.941  0.00  0.00    -0.007 C 
ATOM     23  H   LIG d   1       4.152  -5.005  -6.612  0.00  0.00     0.027 H 
ATOM     24  H   LIG d   1       4.305  -4.778  -4.872  0.00  0.00     0.027 H 
ATOM     25  H   LIG d   1       3.240  -2.796  -5.748  0.00  0.00     0.027 H 
ATOM     26  H   LIG d   1       4.339  -2.701  -7.108  0.00  0.00     0.027 H 
ATOM     27  H   LIG d   1       8.851  -3.951  -4.109  0.00  0.00     0.027 H 
ATOM     28  H   LIG d   1       8.810  -3.836  -5.893  0.00  0.00     0.027 H 
ATOM     29  H   LIG d   1       8.262  -6.206  -4.110  0.00  0.00     0.030 H 
ATOM     30  H   LIG d   1       8.821  -6.189  -5.806  0.00  0.00     0.030 H 
ATOM     31  H   LIG d   1       8.502  -1.698  -4.393  0.00  0.00     0.027 H 
ATOM     32  H   LIG d   1       7.456  -0.332  -4.836  0.00  0.00     0.027 H 
ATOM     33  H   LIG d   1       7.520  -0.611  -2.379  0.00  0.00     0.031 H 
ATOM     34  H   LIG d   1       6.928  -2.284  -2.542  0.00  0.00     0.031 H 
ATOM     35  H   LIG d   1       5.932   0.862  -1.861  0.00  0.00     0.065 H 
ATOM     36  H   LIG d   1       3.620   0.976  -4.780  0.00  0.00     0.035 H 
ATOM     37  H   LIG d   1       2.130   0.941  -3.942  0.00  0.00     0.035 H 
ATOM     38  H   LIG d   1       2.772  -1.220  -5.065  0.00  0.00     0.028 H 
ATOM     39  H   LIG d   1       2.527  -1.355  -3.317  0.00  0.00     0.028 H 
ENDROOT
BRANCH  12  40
ATOM     40  O   LIG d   1       6.646  -6.879  -6.729  0.00  0.00    -0.461 OA
BRANCH  40  41
ATOM     41  C   LIG d   1       5.780  -7.904  -6.705  0.00  0.00     0.308 C 
ATOM     42  O   LIG d   1       5.592  -8.559  -7.703  0.00  0.00    -0.251 OA
BRANCH  41  43
ATOM     43  C   LIG d   1       5.044  -8.240  -5.434  0.00  0.00     0.049 C 
ATOM     44  H   LIG d   1       5.400  -7.597  -4.628  0.00  0.00     0.038 H 
ATOM     45  H   LIG d   1       3.976  -8.083  -5.580  0.00  0.00     0.038 H 
BRANCH  43  46
ATOM     46  C   LIG d   1       5.299  -9.703  -5.068  0.00  0.00    -0.018 C 
ATOM     47  H   LIG d   1       4.347 -10.228  -4.986  0.00  0.00     0.032 H 
ATOM     48  H   LIG d   1       5.908 -10.170  -5.842  0.00  0.00     0.032 H 
BRANCH  46  49
ATOM     49  C   LIG d   1       6.024  -9.772  -3.748  0.00  0.00    -0.047 A 
ATOM     50  C   LIG d   1       5.503 -10.523  -2.712  0.00  0.00    -0.059 A 
ATOM     51  C   LIG d   1       6.168 -10.585  -1.501  0.00  0.00    -0.061 A 
ATOM     52  H   LIG d   1       4.577 -11.061  -2.846  0.00  0.00     0.062 H 
ATOM     53  C   LIG d   1       7.355  -9.897  -1.328  0.00  0.00    -0.062 A 
ATOM     54  H   LIG d   1       5.761 -11.171  -0.690  0.00  0.00     0.062 H 
ATOM     55  C   LIG d   1       7.876  -9.146  -2.365  0.00  0.00    -0.061 A 
ATOM     56  H   LIG d   1       7.875  -9.946  -0.383  0.00  0.00     0.062 H 
ATOM     57  C   LIG d   1       7.214  -9.088  -3.578  0.00  0.00    -0.059 A 
ATOM     58  H   LIG d   1       8.803  -8.609  -2.230  0.00  0.00     0.062 H 
ATOM     59  H   LIG d   1       7.622  -8.505  -4.389  0.00  0.00     0.062 H 
ENDBRANCH  46  49
ENDBRANCH  43  46
ENDBRANCH  41  43
ENDBRANCH  40  41
ENDBRANCH  12  40
BRANCH   1  60
ATOM     60  C   LIG d   1       6.595  -4.318  -7.394  0.00  0.00    -0.056 C 
ATOM     61  H   LIG d   1       5.776  -3.859  -7.947  0.00  0.00     0.024 H 
ATOM     62  H   LIG d   1       7.446  -3.638  -7.374  0.00  0.00     0.024 H 
ATOM     63  H   LIG d   1       6.886  -5.249  -7.881  0.00  0.00     0.024 H 
ENDBRANCH   1  60
BRANCH  22  64
ATOM     64  C   LIG d   1       4.293  -2.844  -3.144  0.00  0.00    -0.056 C 
ATOM     65  H   LIG d   1       5.223  -3.404  -3.047  0.00  0.00     0.024 H 
ATOM     66  H   LIG d   1       3.919  -2.588  -2.153  0.00  0.00     0.024 H 
ATOM     67  H   LIG d   1       3.555  -3.454  -3.665  0.00  0.00     0.024 H 
ENDBRANCH  22  64
TORSDOF 7
ENDMDL
MODEL 9
REMARK VINA RESULT:      -6.2      3.076      4.749
REMARK  7 active torsions:
REMARK  status: ('A' for Active; 'I' for Inactive)
REMARK    1  A    between atoms: C_1  and  C_2 
REMARK    2  A    between atoms: C_13  and  O_15 
REMARK    3  A    between atoms: O_15  and  C_16 
REMARK    4  A    between atoms: C_16  and  C_18 
REMARK    5  A    between atoms: C_18  and  C_19 
REMARK    6  A    between atoms: C_19  and  C_20 
REMARK    7  A    between atoms: C_34  and  C_35 
ROOT
ATOM      1  C   LIG d   1       4.383  -0.995  -6.938  0.00  0.00     0.008 C 
ATOM      2  C   LIG d   1       4.665  -2.255  -6.154  0.00  0.00    -0.044 C 
ATOM      3  C   LIG d   1       5.792  -3.053  -6.803  0.00  0.00    -0.049 C 
ATOM      4  C   LIG d   1       5.707  -3.240  -8.311  0.00  0.00    -0.029 C 
ATOM      5  H   LIG d   1       6.777  -3.391  -8.637  0.00  0.00     0.031 H 
ATOM      6  C   LIG d   1       5.241  -1.998  -9.052  0.00  0.00    -0.034 C 
ATOM      7  H   LIG d   1       6.070  -1.258  -9.009  0.00  0.00     0.031 H 
ATOM      8  C   LIG d   1       4.034  -1.389  -8.392  0.00  0.00    -0.029 C 
ATOM      9  H   LIG d   1       3.193  -2.094  -8.399  0.00  0.00     0.031 H 
ATOM     10  C   LIG d   1       3.532  -0.054  -8.964  0.00  0.00    -0.046 C 
ATOM     11  C   LIG d   1       2.669   0.512  -7.803  0.00  0.00    -0.015 C 
ATOM     12  C   LIG d   1       3.132  -0.213  -6.515  0.00  0.00     0.109 C 
ATOM     13  H   LIG d   1       2.364  -0.900  -6.164  0.00  0.00     0.074 H 
ATOM     14  C   LIG d   1       5.005  -2.221 -10.543  0.00  0.00    -0.046 C 
ATOM     15  C   LIG d   1       4.033  -3.383 -10.767  0.00  0.00    -0.030 C 
ATOM     16  C   LIG d   1       4.702  -4.599 -10.144  0.00  0.00    -0.060 C 
ATOM     17  C   LIG d   1       5.004  -5.623 -10.933  0.00  0.00    -0.019 C 
ATOM     18  C   LIG d   1       5.774  -6.749 -10.395  0.00  0.00     0.156 C 
ATOM     19  O   LIG d   1       5.746  -7.849 -10.910  0.00  0.00    -0.293 OA
ATOM     20  C   LIG d   1       6.604  -6.462  -9.161  0.00  0.00     0.011 C 
ATOM     21  C   LIG d   1       5.740  -5.742  -8.135  0.00  0.00    -0.037 C 
ATOM     22  C   LIG d   1       5.005  -4.533  -8.681  0.00  0.00    -0.007 C 
ATOM     23  H   LIG d   1       4.973  -1.967  -5.134  0.00  0.00     0.027 H 
ATOM     24  H   LIG d   1       3.757  -2.848  -6.056  0.00  0.00     0.027 H 
ATOM     25  H   LIG d   1       5.840  -4.039  -6.320  0.00  0.00     0.027 H 
ATOM     26  H   LIG d   1       6.752  -2.566  -6.571  0.00  0.00     0.027 H 
ATOM     27  H   LIG d   1       2.915  -0.231  -9.847  0.00  0.00     0.027 H 
ATOM     28  H   LIG d   1       4.357   0.609  -9.205  0.00  0.00     0.027 H 
ATOM     29  H   LIG d   1       1.614   0.306  -7.989  0.00  0.00     0.030 H 
ATOM     30  H   LIG d   1       2.827   1.586  -7.707  0.00  0.00     0.030 H 
ATOM     31  H   LIG d   1       4.592  -1.314 -10.984  0.00  0.00     0.027 H 
ATOM     32  H   LIG d   1       5.957  -2.450 -11.025  0.00  0.00     0.027 H 
ATOM     33  H   LIG d   1       3.895  -3.548 -11.836  0.00  0.00     0.031 H 
ATOM     34  H   LIG d   1       3.080  -3.180 -10.293  0.00  0.00     0.031 H 
ATOM     35  H   LIG d   1       4.684  -5.626 -11.967  0.00  0.00     0.065 H 
ATOM     36  H   LIG d   1       7.381  -5.884  -9.409  0.00  0.00     0.035 H 
ATOM     37  H   LIG d   1       6.971  -7.404  -8.742  0.00  0.00     0.035 H 
ATOM     38  H   LIG d   1       6.377  -5.418  -7.311  0.00  0.00     0.028 H 
ATOM     39  H   LIG d   1       4.998  -6.441  -7.740  0.00  0.00     0.028 H 
ENDROOT
BRANCH  12  40
ATOM     40  O   LIG d   1       3.473   0.749  -5.485  0.00  0.00    -0.461 OA
BRANCH  40  41
ATOM     41  C   LIG d   1       2.957   0.543  -4.263  0.00  0.00     0.308 C 
ATOM     42  O   LIG d   1       2.124  -0.316  -4.097  0.00  0.00    -0.251 OA
BRANCH  41  43
ATOM     43  C   LIG d   1       3.419   1.381  -3.098  0.00  0.00     0.049 C 
ATOM     44  H   LIG d   1       4.090   2.163  -3.457  0.00  0.00     0.038 H 
ATOM     45  H   LIG d   1       2.556   1.836  -2.613  0.00  0.00     0.038 H 
BRANCH  43  46
ATOM     46  C   LIG d   1       4.160   0.495  -2.095  0.00  0.00    -0.018 C 
ATOM     47  H   LIG d   1       4.434   1.087  -1.221  0.00  0.00     0.032 H 
ATOM     48  H   LIG d   1       3.513  -0.327  -1.790  0.00  0.00     0.032 H 
BRANCH  46  49
ATOM     49  C   LIG d   1       5.407  -0.057  -2.738  0.00  0.00    -0.047 A 
ATOM     50  C   LIG d   1       6.335   0.802  -3.296  0.00  0.00    -0.059 A 
ATOM     51  C   LIG d   1       7.478   0.296  -3.885  0.00  0.00    -0.061 A 
ATOM     52  H   LIG d   1       6.167   1.869  -3.272  0.00  0.00     0.062 H 
ATOM     53  C   LIG d   1       7.694  -1.069  -3.915  0.00  0.00    -0.062 A 
ATOM     54  H   LIG d   1       8.204   0.966  -4.322  0.00  0.00     0.062 H 
ATOM     55  C   LIG d   1       6.766  -1.928  -3.356  0.00  0.00    -0.061 A 
ATOM     56  H   LIG d   1       8.587  -1.466  -4.374  0.00  0.00     0.062 H 
ATOM     57  C   LIG d   1       5.624  -1.422  -2.762  0.00  0.00    -0.059 A 
ATOM     58  H   LIG d   1       6.935  -2.995  -3.380  0.00  0.00     0.062 H 
ATOM     59  H   LIG d   1       4.901  -2.092  -2.323  0.00  0.00     0.062 H 
ENDBRANCH  46  49
ENDBRANCH  43  46
ENDBRANCH  41  43
ENDBRANCH  40  41
ENDBRANCH  12  40
BRANCH   1  60
ATOM     60  C   LIG d   1       5.582  -0.051  -6.869  0.00  0.00    -0.056 C 
ATOM     61  H   LIG d   1       6.008  -0.076  -5.867  0.00  0.00     0.024 H 
ATOM     62  H   LIG d   1       6.334  -0.365  -7.592  0.00  0.00     0.024 H 
ATOM     63  H   LIG d   1       5.258   0.964  -7.101  0.00  0.00     0.024 H 
ENDBRANCH   1  60
BRANCH  22  64
ATOM     64  C   LIG d   1       3.640  -4.581  -7.981  0.00  0.00    -0.056 C 
ATOM     65  H   LIG d   1       2.891  -4.967  -8.673  0.00  0.00     0.024 H 
ATOM     66  H   LIG d   1       3.700  -5.233  -7.110  0.00  0.00     0.024 H 
ATOM     67  H   LIG d   1       3.358  -3.576  -7.665  0.00  0.00     0.024 H 
ENDBRANCH  22  64
TORSDOF 7
ENDMDL
