MODEL 1
REMARK VINA RESULT:      -7.1      0.000      0.000
REMARK  7 active torsions:
REMARK  status: ('A' for Active; 'I' for Inactive)
REMARK    1  A    between atoms: C_1  and  C_2 
REMARK    2  A    between atoms: C_4  and  C_21 
REMARK    3  A    between atoms: C_6  and  O_8 
REMARK    4  A    between atoms: O_8  and  C_9 
REMARK    5  A    between atoms: C_9  and  C_11 
REMARK    6  A    between atoms: C_11  and  C_12 
REMARK    7  A    between atoms: C_11  and  C_16 
ROOT
ATOM      1  C   LIG d   1       4.141  -2.595  -7.931  0.00  0.00    -0.047 A 
ATOM      2  C   LIG d   1       3.239  -2.179  -8.892  0.00  0.00    -0.056 A 
ATOM      3  C   LIG d   1       2.648  -0.933  -8.794  0.00  0.00    -0.047 A 
ATOM      4  C   LIG d   1       2.958  -0.101  -7.736  0.00  0.00    -0.016 A 
ATOM      5  C   LIG d   1       3.863  -0.517  -6.770  0.00  0.00     0.132 A 
ATOM      6  C   LIG d   1       4.451  -1.770  -6.868  0.00  0.00    -0.016 A 
ATOM      7  H   LIG d   1       2.996  -2.827  -9.720  0.00  0.00     0.062 H 
ATOM      8  H   LIG d   1       2.497   0.873  -7.661  0.00  0.00     0.066 H 
ATOM      9  H   LIG d   1       5.152  -2.098  -6.115  0.00  0.00     0.066 H 
ENDROOT
BRANCH   5  10
ATOM     10  O   LIG d   1       4.170   0.300  -5.728  0.00  0.00    -0.424 OA
BRANCH  10  11
ATOM     11  C   LIG d   1       3.546   0.090  -4.558  0.00  0.00     0.352 C 
ATOM     12  O   LIG d   1       2.341   0.169  -4.492  0.00  0.00    -0.248 OA
BRANCH  11  13
ATOM     13  C   LIG d   1       4.347  -0.244  -3.326  0.00  0.00     0.329 C 
ATOM     14 CL   LIG d   1       6.058  -0.572  -3.793  0.00  0.00    -0.088 Cl
BRANCH  13  15
ATOM     15  C   LIG d   1       4.301   0.934  -2.352  0.00  0.00     0.427 C 
ATOM     16  F   LIG d   1       5.079   1.984  -2.854  0.00  0.00    -0.168 F 
ATOM     17  F   LIG d   1       2.978   1.364  -2.201  0.00  0.00    -0.168 F 
ATOM     18  F   LIG d   1       4.805   0.532  -1.110  0.00  0.00    -0.168 F 
ENDBRANCH  13  15
BRANCH  13  19
ATOM     19  C   LIG d   1       3.756  -1.485  -2.655  0.00  0.00     0.427 C 
ATOM     20  F   LIG d   1       2.410  -1.254  -2.349  0.00  0.00    -0.168 F 
ATOM     21  F   LIG d   1       3.856  -2.578  -3.522  0.00  0.00    -0.168 F 
ATOM     22  F   LIG d   1       4.461  -1.758  -1.477  0.00  0.00    -0.168 F 
ENDBRANCH  13  19
ENDBRANCH  11  13
ENDBRANCH  10  11
ENDBRANCH   5  10
BRANCH   3  23
ATOM     23  C   LIG d   1       1.665  -0.482  -9.844  0.00  0.00    -0.040 C 
ATOM     24  H   LIG d   1       1.964   0.494 -10.226  0.00  0.00     0.028 H 
ATOM     25  H   LIG d   1       1.650  -1.203 -10.662  0.00  0.00     0.028 H 
ATOM     26  H   LIG d   1       0.670  -0.412  -9.403  0.00  0.00     0.028 H 
ENDBRANCH   3  23
BRANCH   1  27
ATOM     27  C   LIG d   1       4.784  -3.955  -8.040  0.00  0.00    -0.040 C 
ATOM     28  H   LIG d   1       4.552  -4.389  -9.013  0.00  0.00     0.028 H 
ATOM     29  H   LIG d   1       5.864  -3.855  -7.934  0.00  0.00     0.028 H 
ATOM     30  H   LIG d   1       4.399  -4.602  -7.252  0.00  0.00     0.028 H 
ENDBRANCH   1  27
TORSDOF 7
ENDMDL
MODEL 2
REMARK VINA RESULT:      -7.0      0.280      2.059
REMARK  7 active torsions:
REMARK  status: ('A' for Active; 'I' for Inactive)
REMARK    1  A    between atoms: C_1  and  C_2 
REMARK    2  A    between atoms: C_4  and  C_21 
REMARK    3  A    between atoms: C_6  and  O_8 
REMARK    4  A    between atoms: O_8  and  C_9 
REMARK    5  A    between atoms: C_9  and  C_11 
REMARK    6  A    between atoms: C_11  and  C_12 
REMARK    7  A    between atoms: C_11  and  C_16 
ROOT
ATOM      1  C   LIG d   1       2.625  -0.985  -8.855  0.00  0.00    -0.047 A 
ATOM      2  C   LIG d   1       3.151  -2.262  -8.935  0.00  0.00    -0.056 A 
ATOM      3  C   LIG d   1       4.039  -2.707  -7.973  0.00  0.00    -0.047 A 
ATOM      4  C   LIG d   1       4.404  -1.877  -6.931  0.00  0.00    -0.016 A 
ATOM      5  C   LIG d   1       3.878  -0.595  -6.850  0.00  0.00     0.132 A 
ATOM      6  C   LIG d   1       2.991  -0.150  -7.818  0.00  0.00    -0.016 A 
ATOM      7  H   LIG d   1       2.866  -2.912  -9.748  0.00  0.00     0.062 H 
ATOM      8  H   LIG d   1       5.098  -2.226  -6.180  0.00  0.00     0.066 H 
ATOM      9  H   LIG d   1       2.584   0.849  -7.759  0.00  0.00     0.066 H 
ENDROOT
BRANCH   5  10
ATOM     10  O   LIG d   1       4.236   0.222  -5.824  0.00  0.00    -0.424 OA
BRANCH  10  11
ATOM     11  C   LIG d   1       3.574   0.103  -4.663  0.00  0.00     0.352 C 
ATOM     12  O   LIG d   1       2.370   0.211  -4.639  0.00  0.00    -0.248 OA
BRANCH  11  13
ATOM     13  C   LIG d   1       4.330  -0.166  -3.388  0.00  0.00     0.329 C 
ATOM     14 CL   LIG d   1       6.088  -0.337  -3.757  0.00  0.00    -0.088 Cl
BRANCH  13  15
ATOM     15  C   LIG d   1       4.125   0.999  -2.417  0.00  0.00     0.427 C 
ATOM     16  F   LIG d   1       4.333   2.208  -3.090  0.00  0.00    -0.168 F 
ATOM     17  F   LIG d   1       2.820   0.963  -1.914  0.00  0.00    -0.168 F 
ATOM     18  F   LIG d   1       5.036   0.891  -1.360  0.00  0.00    -0.168 F 
ENDBRANCH  13  15
BRANCH  13  19
ATOM     19  C   LIG d   1       3.815  -1.457  -2.751  0.00  0.00     0.427 C 
ATOM     20  F   LIG d   1       4.434  -1.645  -1.510  0.00  0.00    -0.168 F 
ATOM     21  F   LIG d   1       2.431  -1.371  -2.573  0.00  0.00    -0.168 F 
ATOM     22  F   LIG d   1       4.110  -2.539  -3.587  0.00  0.00    -0.168 F 
ENDBRANCH  13  19
ENDBRANCH  11  13
ENDBRANCH  10  11
ENDBRANCH   5  10
BRANCH   3  23
ATOM     23  C   LIG d   1       4.610  -4.099  -8.063  0.00  0.00    -0.040 C 
ATOM     24  H   LIG d   1       5.509  -4.163  -7.451  0.00  0.00     0.028 H 
ATOM     25  H   LIG d   1       3.873  -4.818  -7.702  0.00  0.00     0.028 H 
ATOM     26  H   LIG d   1       4.859  -4.323  -9.100  0.00  0.00     0.028 H 
ENDBRANCH   3  23
BRANCH   1  27
ATOM     27  C   LIG d   1       1.657  -0.503  -9.905  0.00  0.00    -0.040 C 
ATOM     28  H   LIG d   1       2.066  -0.701 -10.895  0.00  0.00     0.028 H 
ATOM     29  H   LIG d   1       0.708  -1.027  -9.792  0.00  0.00     0.028 H 
ATOM     30  H   LIG d   1       1.497   0.568  -9.786  0.00  0.00     0.028 H 
ENDBRANCH   1  27
TORSDOF 7
ENDMDL
MODEL 3
REMARK VINA RESULT:      -6.9      1.374      1.979
REMARK  7 active torsions:
REMARK  status: ('A' for Active; 'I' for Inactive)
REMARK    1  A    between atoms: C_1  and  C_2 
REMARK    2  A    between atoms: C_4  and  C_21 
REMARK    3  A    between atoms: C_6  and  O_8 
REMARK    4  A    between atoms: O_8  and  C_9 
REMARK    5  A    between atoms: C_9  and  C_11 
REMARK    6  A    between atoms: C_11  and  C_12 
REMARK    7  A    between atoms: C_11  and  C_16 
ROOT
ATOM      1  C   LIG d   1       3.909  -1.464  -9.181  0.00  0.00    -0.047 A 
ATOM      2  C   LIG d   1       3.431  -0.227  -9.571  0.00  0.00    -0.056 A 
ATOM      3  C   LIG d   1       3.112   0.724  -8.619  0.00  0.00    -0.047 A 
ATOM      4  C   LIG d   1       3.271   0.440  -7.276  0.00  0.00    -0.016 A 
ATOM      5  C   LIG d   1       3.751  -0.801  -6.883  0.00  0.00     0.132 A 
ATOM      6  C   LIG d   1       4.065  -1.755  -7.840  0.00  0.00    -0.016 A 
ATOM      7  H   LIG d   1       3.307  -0.003 -10.619  0.00  0.00     0.062 H 
ATOM      8  H   LIG d   1       3.023   1.184  -6.533  0.00  0.00     0.066 H 
ATOM      9  H   LIG d   1       4.434  -2.724  -7.536  0.00  0.00     0.066 H 
ENDROOT
BRANCH   5  10
ATOM     10  O   LIG d   1       3.909  -1.082  -5.562  0.00  0.00    -0.424 OA
BRANCH  10  11
ATOM     11  C   LIG d   1       4.816  -0.374  -4.871  0.00  0.00     0.352 C 
ATOM     12  O   LIG d   1       5.792   0.068  -5.431  0.00  0.00    -0.248 OA
BRANCH  11  13
ATOM     13  C   LIG d   1       4.617  -0.128  -3.398  0.00  0.00     0.329 C 
ATOM     14 CL   LIG d   1       5.835   1.069  -2.818  0.00  0.00    -0.088 Cl
BRANCH  13  15
ATOM     15  C   LIG d   1       3.210   0.420  -3.157  0.00  0.00     0.427 C 
ATOM     16  F   LIG d   1       3.202   1.187  -1.987  0.00  0.00    -0.168 F 
ATOM     17  F   LIG d   1       2.828   1.218  -4.241  0.00  0.00    -0.168 F 
ATOM     18  F   LIG d   1       2.311  -0.644  -3.022  0.00  0.00    -0.168 F 
ENDBRANCH  13  15
BRANCH  13  19
ATOM     19  C   LIG d   1       4.791  -1.441  -2.634  0.00  0.00     0.427 C 
ATOM     20  F   LIG d   1       3.960  -2.420  -3.191  0.00  0.00    -0.168 F 
ATOM     21  F   LIG d   1       6.123  -1.859  -2.719  0.00  0.00    -0.168 F 
ATOM     22  F   LIG d   1       4.448  -1.249  -1.291  0.00  0.00    -0.168 F 
ENDBRANCH  13  19
ENDBRANCH  11  13
ENDBRANCH  10  11
ENDBRANCH   5  10
BRANCH   3  23
ATOM     23  C   LIG d   1       2.591   2.071  -9.047  0.00  0.00    -0.040 C 
ATOM     24  H   LIG d   1       1.538   1.985  -9.315  0.00  0.00     0.028 H 
ATOM     25  H   LIG d   1       2.699   2.781  -8.226  0.00  0.00     0.028 H 
ATOM     26  H   LIG d   1       3.158   2.424  -9.908  0.00  0.00     0.028 H 
ENDBRANCH   3  23
BRANCH   1  27
ATOM     27  C   LIG d   1       4.256  -2.499 -10.221  0.00  0.00    -0.040 C 
ATOM     28  H   LIG d   1       4.491  -2.004 -11.163  0.00  0.00     0.028 H 
ATOM     29  H   LIG d   1       5.120  -3.074  -9.887  0.00  0.00     0.028 H 
ATOM     30  H   LIG d   1       3.407  -3.168 -10.364  0.00  0.00     0.028 H 
ENDBRANCH   1  27
TORSDOF 7
ENDMDL
MODEL 4
REMARK VINA RESULT:      -6.9      1.574      3.216
REMARK  7 active torsions:
REMARK  status: ('A' for Active; 'I' for Inactive)
REMARK    1  A    between atoms: C_1  and  C_2 
REMARK    2  A    between atoms: C_4  and  C_21 
REMARK    3  A    between atoms: C_6  and  O_8 
REMARK    4  A    between atoms: O_8  and  C_9 
REMARK    5  A    between atoms: C_9  and  C_11 
REMARK    6  A    between atoms: C_11  and  C_12 
REMARK    7  A    between atoms: C_11  and  C_16 
ROOT
ATOM      1  C   LIG d   1       3.424   1.043  -9.189  0.00  0.00    -0.047 A 
ATOM      2  C   LIG d   1       3.354  -0.266  -9.628  0.00  0.00    -0.056 A 
ATOM      3  C   LIG d   1       3.244  -1.298  -8.715  0.00  0.00    -0.047 A 
ATOM      4  C   LIG d   1       3.205  -1.024  -7.362  0.00  0.00    -0.016 A 
ATOM      5  C   LIG d   1       3.277   0.289  -6.919  0.00  0.00     0.132 A 
ATOM      6  C   LIG d   1       3.391   1.322  -7.837  0.00  0.00    -0.016 A 
ATOM      7  H   LIG d   1       3.382  -0.482 -10.686  0.00  0.00     0.062 H 
ATOM      8  H   LIG d   1       3.119  -1.831  -6.649  0.00  0.00     0.066 H 
ATOM      9  H   LIG d   1       3.451   2.345  -7.494  0.00  0.00     0.066 H 
ENDROOT
BRANCH   5  10
ATOM     10  O   LIG d   1       3.238   0.560  -5.587  0.00  0.00    -0.424 OA
BRANCH  10  11
ATOM     11  C   LIG d   1       4.195   0.030  -4.809  0.00  0.00     0.352 C 
ATOM     12  O   LIG d   1       5.343   0.014  -5.187  0.00  0.00    -0.248 OA
BRANCH  11  13
ATOM     13  C   LIG d   1       3.837  -0.545  -3.462  0.00  0.00     0.329 C 
ATOM     14 CL   LIG d   1       2.043  -0.644  -3.308  0.00  0.00    -0.088 Cl
BRANCH  13  15
ATOM     15  C   LIG d   1       4.438  -1.945  -3.330  0.00  0.00     0.427 C 
ATOM     16  F   LIG d   1       4.293  -2.631  -4.541  0.00  0.00    -0.168 F 
ATOM     17  F   LIG d   1       5.796  -1.843  -3.012  0.00  0.00    -0.168 F 
ATOM     18  F   LIG d   1       3.773  -2.644  -2.317  0.00  0.00    -0.168 F 
ENDBRANCH  13  15
BRANCH  13  19
ATOM     19  C   LIG d   1       4.394   0.355  -2.359  0.00  0.00     0.427 C 
ATOM     20  F   LIG d   1       5.631   0.874  -2.759  0.00  0.00    -0.168 F 
ATOM     21  F   LIG d   1       3.504   1.407  -2.120  0.00  0.00    -0.168 F 
ATOM     22  F   LIG d   1       4.559  -0.391  -1.187  0.00  0.00    -0.168 F 
ENDBRANCH  13  19
ENDBRANCH  11  13
ENDBRANCH  10  11
ENDBRANCH   5  10
BRANCH   3  23
ATOM     23  C   LIG d   1       3.168  -2.724  -9.198  0.00  0.00    -0.040 C 
ATOM     24  H   LIG d   1       3.131  -2.738 -10.287  0.00  0.00     0.028 H 
ATOM     25  H   LIG d   1       4.048  -3.270  -8.858  0.00  0.00     0.028 H 
ATOM     26  H   LIG d   1       2.270  -3.195  -8.797  0.00  0.00     0.028 H 
ENDBRANCH   3  23
BRANCH   1  27
ATOM     27  C   LIG d   1       3.543   2.167 -10.187  0.00  0.00    -0.040 C 
ATOM     28  H   LIG d   1       3.678   3.110  -9.658  0.00  0.00     0.028 H 
ATOM     29  H   LIG d   1       4.401   1.987 -10.835  0.00  0.00     0.028 H 
ATOM     30  H   LIG d   1       2.636   2.215 -10.789  0.00  0.00     0.028 H 
ENDBRANCH   1  27
TORSDOF 7
ENDMDL
MODEL 5
REMARK VINA RESULT:      -6.8      1.611      2.804
REMARK  7 active torsions:
REMARK  status: ('A' for Active; 'I' for Inactive)
REMARK    1  A    between atoms: C_1  and  C_2 
REMARK    2  A    between atoms: C_4  and  C_21 
REMARK    3  A    between atoms: C_6  and  O_8 
REMARK    4  A    between atoms: O_8  and  C_9 
REMARK    5  A    between atoms: C_9  and  C_11 
REMARK    6  A    between atoms: C_11  and  C_12 
REMARK    7  A    between atoms: C_11  and  C_16 
ROOT
ATOM      1  C   LIG d   1       4.007  -1.213  -9.064  0.00  0.00    -0.047 A 
ATOM      2  C   LIG d   1       3.899   0.006  -9.707  0.00  0.00    -0.056 A 
ATOM      3  C   LIG d   1       3.566   1.140  -8.989  0.00  0.00    -0.047 A 
ATOM      4  C   LIG d   1       3.341   1.058  -7.629  0.00  0.00    -0.016 A 
ATOM      5  C   LIG d   1       3.449  -0.165  -6.982  0.00  0.00     0.132 A 
ATOM      6  C   LIG d   1       3.778  -1.302  -7.705  0.00  0.00    -0.016 A 
ATOM      7  H   LIG d   1       4.076   0.073 -10.769  0.00  0.00     0.062 H 
ATOM      8  H   LIG d   1       3.082   1.944  -7.069  0.00  0.00     0.066 H 
ATOM      9  H   LIG d   1       3.858  -2.256  -7.204  0.00  0.00     0.066 H 
ENDROOT
BRANCH   5  10
ATOM     10  O   LIG d   1       3.228  -0.248  -5.643  0.00  0.00    -0.424 OA
BRANCH  10  11
ATOM     11  C   LIG d   1       4.275  -0.076  -4.820  0.00  0.00     0.352 C 
ATOM     12  O   LIG d   1       5.372   0.146  -5.276  0.00  0.00    -0.248 OA
BRANCH  11  13
ATOM     13  C   LIG d   1       4.082  -0.161  -3.328  0.00  0.00     0.329 C 
ATOM     14 CL   LIG d   1       2.375  -0.618  -2.968  0.00  0.00    -0.088 Cl
BRANCH  13  15
ATOM     15  C   LIG d   1       5.025  -1.217  -2.750  0.00  0.00     0.427 C 
ATOM     16  F   LIG d   1       4.569  -1.608  -1.487  0.00  0.00    -0.168 F 
ATOM     17  F   LIG d   1       5.057  -2.329  -3.599  0.00  0.00    -0.168 F 
ATOM     18  F   LIG d   1       6.312  -0.681  -2.636  0.00  0.00    -0.168 F 
ENDBRANCH  13  15
BRANCH  13  19
ATOM     19  C   LIG d   1       4.389   1.198  -2.696  0.00  0.00     0.427 C 
ATOM     20  F   LIG d   1       5.676   1.604  -3.064  0.00  0.00    -0.168 F 
ATOM     21  F   LIG d   1       3.458   2.142  -3.142  0.00  0.00    -0.168 F 
ATOM     22  F   LIG d   1       4.314   1.092  -1.303  0.00  0.00    -0.168 F 
ENDBRANCH  13  19
ENDBRANCH  11  13
ENDBRANCH  10  11
ENDBRANCH   5  10
BRANCH   3  23
ATOM     23  C   LIG d   1       3.449   2.468  -9.693  0.00  0.00    -0.040 C 
ATOM     24  H   LIG d   1       2.400   2.758  -9.750  0.00  0.00     0.028 H 
ATOM     25  H   LIG d   1       4.005   3.224  -9.137  0.00  0.00     0.028 H 
ATOM     26  H   LIG d   1       3.858   2.383 -10.700  0.00  0.00     0.028 H 
ENDBRANCH   3  23
BRANCH   1  27
ATOM     27  C   LIG d   1       4.370  -2.449  -9.849  0.00  0.00    -0.040 C 
ATOM     28  H   LIG d   1       5.208  -2.953  -9.366  0.00  0.00     0.028 H 
ATOM     29  H   LIG d   1       3.513  -3.121  -9.885  0.00  0.00     0.028 H 
ATOM     30  H   LIG d   1       4.653  -2.164 -10.862  0.00  0.00     0.028 H 
ENDBRANCH   1  27
TORSDOF 7
ENDMDL
MODEL 6
REMARK VINA RESULT:      -6.5      3.370      5.239
REMARK  7 active torsions:
REMARK  status: ('A' for Active; 'I' for Inactive)
REMARK    1  A    between atoms: C_1  and  C_2 
REMARK    2  A    between atoms: C_4  and  C_21 
REMARK    3  A    between atoms: C_6  and  O_8 
REMARK    4  A    between atoms: O_8  and  C_9 
REMARK    5  A    between atoms: C_9  and  C_11 
REMARK    6  A    between atoms: C_11  and  C_12 
REMARK    7  A    between atoms: C_11  and  C_16 
ROOT
ATOM      1  C   LIG d   1       9.580   0.161  -5.397  0.00  0.00    -0.047 A 
ATOM      2  C   LIG d   1       9.886   1.422  -4.922  0.00  0.00    -0.056 A 
ATOM      3  C   LIG d   1       9.036   2.054  -4.034  0.00  0.00    -0.047 A 
ATOM      4  C   LIG d   1       7.876   1.426  -3.620  0.00  0.00    -0.016 A 
ATOM      5  C   LIG d   1       7.567   0.160  -4.097  0.00  0.00     0.132 A 
ATOM      6  C   LIG d   1       8.420  -0.469  -4.991  0.00  0.00    -0.016 A 
ATOM      7  H   LIG d   1      10.792   1.914  -5.243  0.00  0.00     0.062 H 
ATOM      8  H   LIG d   1       7.213   1.920  -2.925  0.00  0.00     0.066 H 
ATOM      9  H   LIG d   1       8.178  -1.452  -5.367  0.00  0.00     0.066 H 
ENDROOT
BRANCH   5  10
ATOM     10  O   LIG d   1       6.427  -0.459  -3.690  0.00  0.00    -0.424 OA
BRANCH  10  11
ATOM     11  C   LIG d   1       5.278  -0.129  -4.302  0.00  0.00     0.352 C 
ATOM     12  O   LIG d   1       5.256   0.034  -5.499  0.00  0.00    -0.248 OA
BRANCH  11  13
ATOM     13  C   LIG d   1       4.016   0.039  -3.495  0.00  0.00     0.329 C 
ATOM     14 CL   LIG d   1       2.664   0.522  -4.587  0.00  0.00    -0.088 Cl
BRANCH  13  15
ATOM     15  C   LIG d   1       3.669  -1.284  -2.810  0.00  0.00     0.427 C 
ATOM     16  F   LIG d   1       3.949  -2.346  -3.677  0.00  0.00    -0.168 F 
ATOM     17  F   LIG d   1       4.432  -1.420  -1.645  0.00  0.00    -0.168 F 
ATOM     18  F   LIG d   1       2.309  -1.296  -2.481  0.00  0.00    -0.168 F 
ENDBRANCH  13  15
BRANCH  13  19
ATOM     19  C   LIG d   1       4.227   1.122  -2.437  0.00  0.00     0.427 C 
ATOM     20  F   LIG d   1       4.980   0.601  -1.378  0.00  0.00    -0.168 F 
ATOM     21  F   LIG d   1       4.908   2.204  -3.004  0.00  0.00    -0.168 F 
ATOM     22  F   LIG d   1       2.986   1.553  -1.957  0.00  0.00    -0.168 F 
ENDBRANCH  13  19
ENDBRANCH  11  13
ENDBRANCH  10  11
ENDBRANCH   5  10
BRANCH   3  23
ATOM     23  C   LIG d   1       9.373   3.429  -3.517  0.00  0.00    -0.040 C 
ATOM     24  H   LIG d   1       9.405   3.410  -2.427  0.00  0.00     0.028 H 
ATOM     25  H   LIG d   1      10.347   3.733  -3.903  0.00  0.00     0.028 H 
ATOM     26  H   LIG d   1       8.614   4.137  -3.847  0.00  0.00     0.028 H 
ENDBRANCH   3  23
BRANCH   1  27
ATOM     27  C   LIG d   1      10.510  -0.526  -6.365  0.00  0.00    -0.040 C 
ATOM     28  H   LIG d   1      10.693  -1.547  -6.031  0.00  0.00     0.028 H 
ATOM     29  H   LIG d   1      10.054  -0.544  -7.355  0.00  0.00     0.028 H 
ATOM     30  H   LIG d   1      11.453   0.018  -6.409  0.00  0.00     0.028 H 
ENDBRANCH   1  27
TORSDOF 7
ENDMDL
MODEL 7
REMARK VINA RESULT:      -6.4      1.970      2.388
REMARK  7 active torsions:
REMARK  status: ('A' for Active; 'I' for Inactive)
REMARK    1  A    between atoms: C_1  and  C_2 
REMARK    2  A    between atoms: C_4  and  C_21 
REMARK    3  A    between atoms: C_6  and  O_8 
REMARK    4  A    between atoms: O_8  and  C_9 
REMARK    5  A    between atoms: C_9  and  C_11 
REMARK    6  A    between atoms: C_11  and  C_12 
REMARK    7  A    between atoms: C_11  and  C_16 
ROOT
ATOM      1  C   LIG d   1       5.406  -0.623  -8.722  0.00  0.00    -0.047 A 
ATOM      2  C   LIG d   1       4.951   0.500  -9.388  0.00  0.00    -0.056 A 
ATOM      3  C   LIG d   1       3.931   1.260  -8.847  0.00  0.00    -0.047 A 
ATOM      4  C   LIG d   1       3.363   0.899  -7.640  0.00  0.00    -0.016 A 
ATOM      5  C   LIG d   1       3.818  -0.229  -6.971  0.00  0.00     0.132 A 
ATOM      6  C   LIG d   1       4.838  -0.992  -7.519  0.00  0.00    -0.016 A 
ATOM      7  H   LIG d   1       5.394   0.785 -10.330  0.00  0.00     0.062 H 
ATOM      8  H   LIG d   1       2.566   1.494  -7.218  0.00  0.00     0.066 H 
ATOM      9  H   LIG d   1       5.190  -1.873  -7.002  0.00  0.00     0.066 H 
ENDROOT
BRANCH   5  10
ATOM     10  O   LIG d   1       3.260  -0.586  -5.784  0.00  0.00    -0.424 OA
BRANCH  10  11
ATOM     11  C   LIG d   1       3.904  -0.242  -4.657  0.00  0.00     0.352 C 
ATOM     12  O   LIG d   1       3.998   0.922  -4.345  0.00  0.00    -0.248 OA
BRANCH  11  13
ATOM     13  C   LIG d   1       4.510  -1.308  -3.781  0.00  0.00     0.329 C 
ATOM     14 CL   LIG d   1       4.498  -2.885  -4.656  0.00  0.00    -0.088 Cl
BRANCH  13  15
ATOM     15  C   LIG d   1       5.951  -0.927  -3.438  0.00  0.00     0.427 C 
ATOM     16  F   LIG d   1       5.953   0.228  -2.648  0.00  0.00    -0.168 F 
ATOM     17  F   LIG d   1       6.556  -1.975  -2.734  0.00  0.00    -0.168 F 
ATOM     18  F   LIG d   1       6.664  -0.686  -4.617  0.00  0.00    -0.168 F 
ENDBRANCH  13  15
BRANCH  13  19
ATOM     19  C   LIG d   1       3.695  -1.434  -2.493  0.00  0.00     0.427 C 
ATOM     20  F   LIG d   1       2.386  -0.997  -2.724  0.00  0.00    -0.168 F 
ATOM     21  F   LIG d   1       3.674  -2.771  -2.082  0.00  0.00    -0.168 F 
ATOM     22  F   LIG d   1       4.279  -0.649  -1.493  0.00  0.00    -0.168 F 
ENDBRANCH  13  19
ENDBRANCH  11  13
ENDBRANCH  10  11
ENDBRANCH   5  10
BRANCH   3  23
ATOM     23  C   LIG d   1       3.438   2.484  -9.575  0.00  0.00    -0.040 C 
ATOM     24  H   LIG d   1       4.277   3.149  -9.778  0.00  0.00     0.028 H 
ATOM     25  H   LIG d   1       2.975   2.186 -10.516  0.00  0.00     0.028 H 
ATOM     26  H   LIG d   1       2.703   3.002  -8.958  0.00  0.00     0.028 H 
ENDBRANCH   3  23
BRANCH   1  27
ATOM     27  C   LIG d   1       6.519  -1.450  -9.315  0.00  0.00    -0.040 C 
ATOM     28  H   LIG d   1       7.461  -0.912  -9.220  0.00  0.00     0.028 H 
ATOM     29  H   LIG d   1       6.587  -2.400  -8.784  0.00  0.00     0.028 H 
ATOM     30  H   LIG d   1       6.311  -1.636 -10.368  0.00  0.00     0.028 H 
ENDBRANCH   1  27
TORSDOF 7
ENDMDL
MODEL 8
REMARK VINA RESULT:      -6.4      3.551      5.066
REMARK  7 active torsions:
REMARK  status: ('A' for Active; 'I' for Inactive)
REMARK    1  A    between atoms: C_1  and  C_2 
REMARK    2  A    between atoms: C_4  and  C_21 
REMARK    3  A    between atoms: C_6  and  O_8 
REMARK    4  A    between atoms: O_8  and  C_9 
REMARK    5  A    between atoms: C_9  and  C_11 
REMARK    6  A    between atoms: C_11  and  C_12 
REMARK    7  A    between atoms: C_11  and  C_16 
ROOT
ATOM      1  C   LIG d   1       9.115   2.937  -4.594  0.00  0.00    -0.047 A 
ATOM      2  C   LIG d   1       9.056   2.763  -5.964  0.00  0.00    -0.056 A 
ATOM      3  C   LIG d   1       8.264   1.766  -6.503  0.00  0.00    -0.047 A 
ATOM      4  C   LIG d   1       7.530   0.940  -5.673  0.00  0.00    -0.016 A 
ATOM      5  C   LIG d   1       7.589   1.113  -4.297  0.00  0.00     0.132 A 
ATOM      6  C   LIG d   1       8.387   2.111  -3.759  0.00  0.00    -0.016 A 
ATOM      7  H   LIG d   1       9.628   3.408  -6.614  0.00  0.00     0.062 H 
ATOM      8  H   LIG d   1       6.912   0.162  -6.094  0.00  0.00     0.066 H 
ATOM      9  H   LIG d   1       8.438   2.245  -2.689  0.00  0.00     0.066 H 
ENDROOT
BRANCH   5  10
ATOM     10  O   LIG d   1       6.867   0.302  -3.479  0.00  0.00    -0.424 OA
BRANCH  10  11
ATOM     11  C   LIG d   1       5.588   0.630  -3.236  0.00  0.00     0.352 C 
ATOM     12  O   LIG d   1       5.310   1.746  -2.865  0.00  0.00    -0.248 OA
BRANCH  11  13
ATOM     13  C   LIG d   1       4.499  -0.394  -3.425  0.00  0.00     0.329 C 
ATOM     14 CL   LIG d   1       4.570  -1.045  -5.106  0.00  0.00    -0.088 Cl
BRANCH  13  15
ATOM     15  C   LIG d   1       4.695  -1.537  -2.428  0.00  0.00     0.427 C 
ATOM     16  F   LIG d   1       4.515  -1.057  -1.126  0.00  0.00    -0.168 F 
ATOM     17  F   LIG d   1       3.760  -2.547  -2.685  0.00  0.00    -0.168 F 
ATOM     18  F   LIG d   1       5.988  -2.055  -2.560  0.00  0.00    -0.168 F 
ENDBRANCH  13  15
BRANCH  13  19
ATOM     19  C   LIG d   1       3.137   0.260  -3.189  0.00  0.00     0.427 C 
ATOM     20  F   LIG d   1       3.202   1.083  -2.060  0.00  0.00    -0.168 F 
ATOM     21  F   LIG d   1       2.788   1.028  -4.305  0.00  0.00    -0.168 F 
ATOM     22  F   LIG d   1       2.171  -0.732  -2.987  0.00  0.00    -0.168 F 
ENDBRANCH  13  19
ENDBRANCH  11  13
ENDBRANCH  10  11
ENDBRANCH   5  10
BRANCH   3  23
ATOM     23  C   LIG d   1       8.202   1.579  -7.997  0.00  0.00    -0.040 C 
ATOM     24  H   LIG d   1       8.289   0.518  -8.235  0.00  0.00     0.028 H 
ATOM     25  H   LIG d   1       7.251   1.958  -8.371  0.00  0.00     0.028 H 
ATOM     26  H   LIG d   1       9.021   2.125  -8.466  0.00  0.00     0.028 H 
ENDBRANCH   3  23
BRANCH   1  27
ATOM     27  C   LIG d   1       9.979   4.026  -4.009  0.00  0.00    -0.040 C 
ATOM     28  H   LIG d   1      10.740   3.580  -3.369  0.00  0.00     0.028 H 
ATOM     29  H   LIG d   1      10.460   4.579  -4.816  0.00  0.00     0.028 H 
ATOM     30  H   LIG d   1       9.360   4.703  -3.422  0.00  0.00     0.028 H 
ENDBRANCH   1  27
TORSDOF 7
ENDMDL
MODEL 9
REMARK VINA RESULT:      -6.3      1.903      2.851
REMARK  7 active torsions:
REMARK  status: ('A' for Active; 'I' for Inactive)
REMARK    1  A    between atoms: C_1  and  C_2 
REMARK    2  A    between atoms: C_4  and  C_21 
REMARK    3  A    between atoms: C_6  and  O_8 
REMARK    4  A    between atoms: O_8  and  C_9 
REMARK    5  A    between atoms: C_9  and  C_11 
REMARK    6  A    between atoms: C_11  and  C_12 
REMARK    7  A    between atoms: C_11  and  C_16 
ROOT
ATOM      1  C   LIG d   1       6.360  -4.369  -6.095  0.00  0.00    -0.047 A 
ATOM      2  C   LIG d   1       6.173  -4.457  -7.462  0.00  0.00    -0.056 A 
ATOM      3  C   LIG d   1       5.286  -3.607  -8.097  0.00  0.00    -0.047 A 
ATOM      4  C   LIG d   1       4.585  -2.667  -7.366  0.00  0.00    -0.016 A 
ATOM      5  C   LIG d   1       4.771  -2.578  -5.994  0.00  0.00     0.132 A 
ATOM      6  C   LIG d   1       5.657  -3.435  -5.359  0.00  0.00    -0.016 A 
ATOM      7  H   LIG d   1       6.721  -5.190  -8.035  0.00  0.00     0.062 H 
ATOM      8  H   LIG d   1       3.893  -2.003  -7.863  0.00  0.00     0.066 H 
ATOM      9  H   LIG d   1       5.799  -3.370  -4.291  0.00  0.00     0.066 H 
ENDROOT
BRANCH   5  10
ATOM     10  O   LIG d   1       4.081  -1.653  -5.274  0.00  0.00    -0.424 OA
BRANCH  10  11
ATOM     11  C   LIG d   1       4.762  -0.611  -4.771  0.00  0.00     0.352 C 
ATOM     12  O   LIG d   1       5.539  -0.004  -5.469  0.00  0.00    -0.248 OA
BRANCH  11  13
ATOM     13  C   LIG d   1       4.555  -0.198  -3.337  0.00  0.00     0.329 C 
ATOM     14 CL   LIG d   1       5.757   1.074  -2.899  0.00  0.00    -0.088 Cl
BRANCH  13  15
ATOM     15  C   LIG d   1       3.141   0.357  -3.164  0.00  0.00     0.427 C 
ATOM     16  F   LIG d   1       3.128   1.281  -2.113  0.00  0.00    -0.168 F 
ATOM     17  F   LIG d   1       2.740   0.990  -4.346  0.00  0.00    -0.168 F 
ATOM     18  F   LIG d   1       2.260  -0.691  -2.874  0.00  0.00    -0.168 F 
ENDBRANCH  13  15
BRANCH  13  19
ATOM     19  C   LIG d   1       4.742  -1.411  -2.424  0.00  0.00     0.427 C 
ATOM     20  F   LIG d   1       6.041  -1.911  -2.572  0.00  0.00    -0.168 F 
ATOM     21  F   LIG d   1       4.538  -1.031  -1.094  0.00  0.00    -0.168 F 
ATOM     22  F   LIG d   1       3.820  -2.403  -2.772  0.00  0.00    -0.168 F 
ENDBRANCH  13  19
ENDBRANCH  11  13
ENDBRANCH  10  11
ENDBRANCH   5  10
BRANCH   3  23
ATOM     23  C   LIG d   1       5.085  -3.706  -9.587  0.00  0.00    -0.040 C 
ATOM     24  H   LIG d   1       4.020  -3.774  -9.806  0.00  0.00     0.028 H 
ATOM     25  H   LIG d   1       5.499  -2.819 -10.069  0.00  0.00     0.028 H 
ATOM     26  H   LIG d   1       5.592  -4.594  -9.964  0.00  0.00     0.028 H 
ENDBRANCH   3  23
BRANCH   1  27
ATOM     27  C   LIG d   1       7.327  -5.297  -5.406  0.00  0.00    -0.040 C 
ATOM     28  H   LIG d   1       6.782  -6.143  -4.986  0.00  0.00     0.028 H 
ATOM     29  H   LIG d   1       8.060  -5.658  -6.127  0.00  0.00     0.028 H 
ATOM     30  H   LIG d   1       7.837  -4.761  -4.606  0.00  0.00     0.028 H 
ENDBRANCH   1  27
TORSDOF 7
ENDMDL
MODEL 10
REMARK VINA RESULT:      -6.2      1.729      2.828
REMARK  7 active torsions:
REMARK  status: ('A' for Active; 'I' for Inactive)
REMARK    1  A    between atoms: C_1  and  C_2 
REMARK    2  A    between atoms: C_4  and  C_21 
REMARK    3  A    between atoms: C_6  and  O_8 
REMARK    4  A    between atoms: O_8  and  C_9 
REMARK    5  A    between atoms: C_9  and  C_11 
REMARK    6  A    between atoms: C_11  and  C_12 
REMARK    7  A    between atoms: C_11  and  C_16 
ROOT
ATOM      1  C   LIG d   1       3.129   0.549  -8.279  0.00  0.00    -0.047 A 
ATOM      2  C   LIG d   1       2.755  -0.523  -9.069  0.00  0.00    -0.056 A 
ATOM      3  C   LIG d   1       3.166  -1.802  -8.741  0.00  0.00    -0.047 A 
ATOM      4  C   LIG d   1       3.951  -2.012  -7.624  0.00  0.00    -0.016 A 
ATOM      5  C   LIG d   1       4.327  -0.937  -6.830  0.00  0.00     0.132 A 
ATOM      6  C   LIG d   1       3.918   0.345  -7.164  0.00  0.00    -0.016 A 
ATOM      7  H   LIG d   1       2.140  -0.361  -9.941  0.00  0.00     0.062 H 
ATOM      8  H   LIG d   1       4.271  -3.011  -7.369  0.00  0.00     0.066 H 
ATOM      9  H   LIG d   1       4.213   1.183  -6.550  0.00  0.00     0.066 H 
ENDROOT
BRANCH   5  10
ATOM     10  O   LIG d   1       5.100  -1.142  -5.730  0.00  0.00    -0.424 OA
BRANCH  10  11
ATOM     11  C   LIG d   1       4.522  -1.686  -4.647  0.00  0.00     0.352 C 
ATOM     12  O   LIG d   1       4.100  -2.818  -4.691  0.00  0.00    -0.248 OA
BRANCH  11  13
ATOM     13  C   LIG d   1       4.400  -0.885  -3.377  0.00  0.00     0.329 C 
ATOM     14 CL   LIG d   1       4.079  -1.998  -1.994  0.00  0.00    -0.088 Cl
BRANCH  13  15
ATOM     15  C   LIG d   1       5.702  -0.124  -3.126  0.00  0.00     0.427 C 
ATOM     16  F   LIG d   1       6.733  -1.035  -2.870  0.00  0.00    -0.168 F 
ATOM     17  F   LIG d   1       6.023   0.637  -4.255  0.00  0.00    -0.168 F 
ATOM     18  F   LIG d   1       5.544   0.722  -2.023  0.00  0.00    -0.168 F 
ENDBRANCH  13  15
BRANCH  13  19
ATOM     19  C   LIG d   1       3.245   0.109  -3.509  0.00  0.00     0.427 C 
ATOM     20  F   LIG d   1       2.739   0.408  -2.239  0.00  0.00    -0.168 F 
ATOM     21  F   LIG d   1       3.706   1.282  -4.114  0.00  0.00    -0.168 F 
ATOM     22  F   LIG d   1       2.233  -0.454  -4.293  0.00  0.00    -0.168 F 
ENDBRANCH  13  19
ENDBRANCH  11  13
ENDBRANCH  10  11
ENDBRANCH   5  10
BRANCH   3  23
ATOM     23  C   LIG d   1       2.757  -2.967  -9.604  0.00  0.00    -0.040 C 
ATOM     24  H   LIG d   1       1.674  -3.088  -9.563  0.00  0.00     0.028 H 
ATOM     25  H   LIG d   1       3.062  -2.781 -10.635  0.00  0.00     0.028 H 
ATOM     26  H   LIG d   1       3.239  -3.875  -9.241  0.00  0.00     0.028 H 
ENDBRANCH   3  23
BRANCH   1  27
ATOM     27  C   LIG d   1       2.679   1.942  -8.638  0.00  0.00    -0.040 C 
ATOM     28  H   LIG d   1       3.537   2.527  -8.968  0.00  0.00     0.028 H 
ATOM     29  H   LIG d   1       1.943   1.890  -9.441  0.00  0.00     0.028 H 
ATOM     30  H   LIG d   1       2.231   2.416  -7.765  0.00  0.00     0.028 H 
ENDBRANCH   1  27
TORSDOF 7
ENDMDL
