MODEL 1
REMARK VINA RESULT:      -4.7      0.000      0.000
REMARK  7 active torsions:
REMARK  status: ('A' for Active; 'I' for Inactive)
REMARK    1  A    between atoms: C_1  and  C_2 
REMARK    2  A    between atoms: C_2  and  C_15 
REMARK    3  A    between atoms: C_5  and  C_8 
REMARK    4  A    between atoms: C_8  and  C_10 
REMARK    5  A    between atoms: C_8  and  O_14 
REMARK    6  A    between atoms: C_10  and  O_12 
REMARK    7  A    between atoms: O_12  and  C_13 
ROOT
ATOM      1  C   LIG d   1       4.110  -0.193  -2.556  0.00  0.00     0.165 C 
ATOM      2  O   LIG d   1       2.694  -0.039  -2.749  0.00  0.00    -0.346 OA
ATOM      3  C   LIG d   1       2.477  -0.340  -4.149  0.00  0.00     0.080 C 
ATOM      4  C   LIG d   1       3.751   0.255  -4.799  0.00  0.00     0.121 C 
ATOM      5  H   LIG d   1       3.636   1.326  -4.963  0.00  0.00     0.065 H 
ATOM      6  O   LIG d   1       4.771  -0.004  -3.813  0.00  0.00    -0.341 OA
ATOM      7  H   LIG d   1       1.581   0.159  -4.520  0.00  0.00     0.059 H 
ATOM      8  H   LIG d   1       2.419  -1.415  -4.313  0.00  0.00     0.059 H 
ENDROOT
BRANCH   4   9
ATOM      9  C   LIG d   1       4.073  -0.463  -6.111  0.00  0.00     0.180 C 
ATOM     10  H   LIG d   1       5.127  -0.323  -6.353  0.00  0.00     0.074 H 
BRANCH   9  11
ATOM     11  C   LIG d   1       3.224   0.106  -7.218  0.00  0.00     0.338 C 
ATOM     12  O   LIG d   1       2.649  -0.635  -7.980  0.00  0.00    -0.248 OA
BRANCH  11  13
ATOM     13  O   LIG d   1       3.105   1.436  -7.357  0.00  0.00    -0.466 OA
BRANCH  13  14
ATOM     14  C   LIG d   1       2.782   1.934  -8.681  0.00  0.00     0.082 C 
ATOM     15  H   LIG d   1       1.949   1.363  -9.092  0.00  0.00     0.066 H 
ATOM     16  H   LIG d   1       2.503   2.987  -8.616  0.00  0.00     0.066 H 
ATOM     17  H   LIG d   1       3.650   1.828  -9.331  0.00  0.00     0.066 H 
ENDBRANCH  13  14
ENDBRANCH  11  13
ENDBRANCH   9  11
BRANCH   9  18
ATOM     18  O   LIG d   1       3.799  -1.859  -5.970  0.00  0.00    -0.378 OA
ATOM     19  H   LIG d   1       3.093  -2.059  -5.340  0.00  0.00     0.211 HD
ENDBRANCH   9  18
ENDBRANCH   4   9
BRANCH   1  20
ATOM     20  C   LIG d   1       4.406  -1.598  -2.025  0.00  0.00    -0.011 C 
ATOM     21  H   LIG d   1       5.024  -2.135  -2.744  0.00  0.00     0.028 H 
ATOM     22  H   LIG d   1       4.935  -1.523  -1.075  0.00  0.00     0.028 H 
ATOM     23  H   LIG d   1       3.470  -2.135  -1.878  0.00  0.00     0.028 H 
ENDBRANCH   1  20
BRANCH   1  24
ATOM     24  C   LIG d   1       4.605   0.850  -1.552  0.00  0.00    -0.011 C 
ATOM     25  H   LIG d   1       5.668   0.701  -1.367  0.00  0.00     0.028 H 
ATOM     26  H   LIG d   1       4.443   1.849  -1.957  0.00  0.00     0.028 H 
ATOM     27  H   LIG d   1       4.054   0.744  -0.617  0.00  0.00     0.028 H 
ENDBRANCH   1  24
TORSDOF 7
ENDMDL
MODEL 2
REMARK VINA RESULT:      -4.2      1.273      4.816
REMARK  7 active torsions:
REMARK  status: ('A' for Active; 'I' for Inactive)
REMARK    1  A    between atoms: C_1  and  C_2 
REMARK    2  A    between atoms: C_2  and  C_15 
REMARK    3  A    between atoms: C_5  and  C_8 
REMARK    4  A    between atoms: C_8  and  C_10 
REMARK    5  A    between atoms: C_8  and  O_14 
REMARK    6  A    between atoms: C_10  and  O_12 
REMARK    7  A    between atoms: O_12  and  C_13 
ROOT
ATOM      1  C   LIG d   1       3.236   0.336  -7.370  0.00  0.00     0.165 C 
ATOM      2  O   LIG d   1       4.652   0.244  -7.144  0.00  0.00    -0.346 OA
ATOM      3  C   LIG d   1       4.783  -0.541  -5.933  0.00  0.00     0.080 C 
ATOM      4  C   LIG d   1       3.562  -0.057  -5.111  0.00  0.00     0.121 C 
ATOM      5  H   LIG d   1       3.793   0.872  -4.590  0.00  0.00     0.065 H 
ATOM      6  O   LIG d   1       2.556   0.162  -6.120  0.00  0.00    -0.341 OA
ATOM      7  H   LIG d   1       5.715  -0.311  -5.418  0.00  0.00     0.059 H 
ATOM      8  H   LIG d   1       4.711  -1.607  -6.149  0.00  0.00     0.059 H 
ENDROOT
BRANCH   4   9
ATOM      9  C   LIG d   1       3.113  -1.136  -4.124  0.00  0.00     0.180 C 
ATOM     10  H   LIG d   1       2.026  -1.216  -4.144  0.00  0.00     0.074 H 
BRANCH   9  11
ATOM     11  C   LIG d   1       3.564  -0.767  -2.735  0.00  0.00     0.338 C 
ATOM     12  O   LIG d   1       4.041  -1.609  -2.011  0.00  0.00    -0.248 OA
BRANCH  11  13
ATOM     13  O   LIG d   1       3.438   0.497  -2.302  0.00  0.00    -0.466 OA
BRANCH  13  14
ATOM     14  C   LIG d   1       4.593   1.091  -1.653  0.00  0.00     0.082 C 
ATOM     15  H   LIG d   1       4.903   0.463  -0.817  0.00  0.00     0.066 H 
ATOM     16  H   LIG d   1       5.411   1.172  -2.370  0.00  0.00     0.066 H 
ATOM     17  H   LIG d   1       4.333   2.083  -1.285  0.00  0.00     0.066 H 
ENDBRANCH  13  14
ENDBRANCH  11  13
ENDBRANCH   9  11
BRANCH   9  18
ATOM     18  O   LIG d   1       3.689  -2.390  -4.495  0.00  0.00    -0.378 OA
ATOM     19  H   LIG d   1       4.640  -2.450  -4.329  0.00  0.00     0.211 HD
ENDBRANCH   9  18
ENDBRANCH   4   9
BRANCH   1  20
ATOM     20  C   LIG d   1       2.800  -0.756  -8.350  0.00  0.00    -0.011 C 
ATOM     21  H   LIG d   1       2.468  -0.297  -9.281  0.00  0.00     0.028 H 
ATOM     22  H   LIG d   1       3.640  -1.420  -8.551  0.00  0.00     0.028 H 
ATOM     23  H   LIG d   1       1.981  -1.328  -7.915  0.00  0.00     0.028 H 
ENDBRANCH   1  20
BRANCH   1  24
ATOM     24  C   LIG d   1       2.901   1.711  -7.951  0.00  0.00    -0.011 C 
ATOM     25  H   LIG d   1       1.851   1.737  -8.242  0.00  0.00     0.028 H 
ATOM     26  H   LIG d   1       3.088   2.479  -7.199  0.00  0.00     0.028 H 
ATOM     27  H   LIG d   1       3.525   1.898  -8.824  0.00  0.00     0.028 H 
ENDBRANCH   1  24
TORSDOF 7
ENDMDL
MODEL 3
REMARK VINA RESULT:      -4.0      2.823      4.358
REMARK  7 active torsions:
REMARK  status: ('A' for Active; 'I' for Inactive)
REMARK    1  A    between atoms: C_1  and  C_2 
REMARK    2  A    between atoms: C_2  and  C_15 
REMARK    3  A    between atoms: C_5  and  C_8 
REMARK    4  A    between atoms: C_8  and  C_10 
REMARK    5  A    between atoms: C_8  and  O_14 
REMARK    6  A    between atoms: C_10  and  O_12 
REMARK    7  A    between atoms: O_12  and  C_13 
ROOT
ATOM      1  C   LIG d   1       3.623   0.326  -3.575  0.00  0.00     0.165 C 
ATOM      2  O   LIG d   1       3.515  -1.025  -3.097  0.00  0.00    -0.346 OA
ATOM      3  C   LIG d   1       4.877  -1.426  -2.808  0.00  0.00     0.080 C 
ATOM      4  C   LIG d   1       5.660  -0.714  -3.940  0.00  0.00     0.121 C 
ATOM      5  H   LIG d   1       5.632  -1.301  -4.857  0.00  0.00     0.065 H 
ATOM      6  O   LIG d   1       4.940   0.524  -4.106  0.00  0.00    -0.341 OA
ATOM      7  H   LIG d   1       4.988  -2.507  -2.879  0.00  0.00     0.059 H 
ATOM      8  H   LIG d   1       5.191  -1.065  -1.829  0.00  0.00     0.059 H 
ENDROOT
BRANCH   4   9
ATOM      9  C   LIG d   1       7.104  -0.445  -3.512  0.00  0.00     0.180 C 
ATOM     10  H   LIG d   1       7.142  -0.294  -2.433  0.00  0.00     0.074 H 
BRANCH   9  11
ATOM     11  C   LIG d   1       7.615   0.788  -4.210  0.00  0.00     0.338 C 
ATOM     12  O   LIG d   1       7.843   0.759  -5.397  0.00  0.00    -0.248 OA
BRANCH  11  13
ATOM     13  O   LIG d   1       7.815   1.919  -3.515  0.00  0.00    -0.466 OA
BRANCH  13  14
ATOM     14  C   LIG d   1       9.137   2.514  -3.592  0.00  0.00     0.082 C 
ATOM     15  H   LIG d   1       9.873   1.740  -3.809  0.00  0.00     0.066 H 
ATOM     16  H   LIG d   1       9.153   3.263  -4.385  0.00  0.00     0.066 H 
ATOM     17  H   LIG d   1       9.378   2.988  -2.641  0.00  0.00     0.066 H 
ENDBRANCH  13  14
ENDBRANCH  11  13
ENDBRANCH   9  11
BRANCH   9  18
ATOM     18  O   LIG d   1       7.921  -1.565  -3.864  0.00  0.00    -0.378 OA
ATOM     19  H   LIG d   1       7.428  -2.389  -3.979  0.00  0.00     0.211 HD
ENDBRANCH   9  18
ENDBRANCH   4   9
BRANCH   1  20
ATOM     20  C   LIG d   1       3.382   1.300  -2.419  0.00  0.00    -0.011 C 
ATOM     21  H   LIG d   1       3.094   2.273  -2.819  0.00  0.00     0.028 H 
ATOM     22  H   LIG d   1       2.585   0.918  -1.782  0.00  0.00     0.028 H 
ATOM     23  H   LIG d   1       4.295   1.403  -1.835  0.00  0.00     0.028 H 
ENDBRANCH   1  20
BRANCH   1  24
ATOM     24  C   LIG d   1       2.585   0.563  -4.673  0.00  0.00    -0.011 C 
ATOM     25  H   LIG d   1       1.938   1.393  -4.388  0.00  0.00     0.028 H 
ATOM     26  H   LIG d   1       3.092   0.802  -5.607  0.00  0.00     0.028 H 
ATOM     27  H   LIG d   1       1.985  -0.337  -4.805  0.00  0.00     0.028 H 
ENDBRANCH   1  24
TORSDOF 7
ENDMDL
MODEL 4
REMARK VINA RESULT:      -3.9      2.364      3.078
REMARK  7 active torsions:
REMARK  status: ('A' for Active; 'I' for Inactive)
REMARK    1  A    between atoms: C_1  and  C_2 
REMARK    2  A    between atoms: C_2  and  C_15 
REMARK    3  A    between atoms: C_5  and  C_8 
REMARK    4  A    between atoms: C_8  and  C_10 
REMARK    5  A    between atoms: C_8  and  O_14 
REMARK    6  A    between atoms: C_10  and  O_12 
REMARK    7  A    between atoms: O_12  and  C_13 
ROOT
ATOM      1  C   LIG d   1       7.124   0.325  -4.285  0.00  0.00     0.165 C 
ATOM      2  O   LIG d   1       7.026  -0.528  -3.133  0.00  0.00    -0.346 OA
ATOM      3  C   LIG d   1       5.782  -1.249  -3.311  0.00  0.00     0.080 C 
ATOM      4  C   LIG d   1       4.885  -0.169  -3.966  0.00  0.00     0.121 C 
ATOM      5  H   LIG d   1       4.452   0.485  -3.208  0.00  0.00     0.065 H 
ATOM      6  O   LIG d   1       5.808   0.560  -4.800  0.00  0.00    -0.341 OA
ATOM      7  H   LIG d   1       5.374  -1.565  -2.352  0.00  0.00     0.059 H 
ATOM      8  H   LIG d   1       5.917  -2.101  -3.977  0.00  0.00     0.059 H 
ENDROOT
BRANCH   4   9
ATOM      9  C   LIG d   1       3.788  -0.818  -4.813  0.00  0.00     0.180 C 
ATOM     10  H   LIG d   1       4.243  -1.461  -5.566  0.00  0.00     0.074 H 
BRANCH   9  11
ATOM     11  C   LIG d   1       2.976   0.255  -5.491  0.00  0.00     0.338 C 
ATOM     12  O   LIG d   1       2.596   1.214  -4.861  0.00  0.00    -0.248 OA
BRANCH  11  13
ATOM     13  O   LIG d   1       2.675   0.146  -6.794  0.00  0.00    -0.466 OA
BRANCH  13  14
ATOM     14  C   LIG d   1       3.613  -0.582  -7.629  0.00  0.00     0.082 C 
ATOM     15  H   LIG d   1       3.110  -0.914  -8.537  0.00  0.00     0.066 H 
ATOM     16  H   LIG d   1       4.446   0.070  -7.893  0.00  0.00     0.066 H 
ATOM     17  H   LIG d   1       3.988  -1.448  -7.084  0.00  0.00     0.066 H 
ENDBRANCH  13  14
ENDBRANCH  11  13
ENDBRANCH   9  11
BRANCH   9  18
ATOM     18  O   LIG d   1       2.937  -1.599  -3.971  0.00  0.00    -0.378 OA
ATOM     19  H   LIG d   1       2.710  -2.465  -4.338  0.00  0.00     0.211 HD
ENDBRANCH   9  18
ENDBRANCH   4   9
BRANCH   1  20
ATOM     20  C   LIG d   1       7.982  -0.354  -5.356  0.00  0.00    -0.011 C 
ATOM     21  H   LIG d   1       7.341  -0.710  -6.163  0.00  0.00     0.028 H 
ATOM     22  H   LIG d   1       8.702   0.360  -5.752  0.00  0.00     0.028 H 
ATOM     23  H   LIG d   1       8.512  -1.198  -4.915  0.00  0.00     0.028 H 
ENDBRANCH   1  20
BRANCH   1  24
ATOM     24  C   LIG d   1       7.764   1.655  -3.882  0.00  0.00    -0.011 C 
ATOM     25  H   LIG d   1       7.021   2.283  -3.392  0.00  0.00     0.028 H 
ATOM     26  H   LIG d   1       8.591   1.468  -3.197  0.00  0.00     0.028 H 
ATOM     27  H   LIG d   1       8.139   2.162  -4.772  0.00  0.00     0.028 H 
ENDBRANCH   1  24
TORSDOF 7
ENDMDL
MODEL 5
REMARK VINA RESULT:      -3.9      1.579      5.299
REMARK  7 active torsions:
REMARK  status: ('A' for Active; 'I' for Inactive)
REMARK    1  A    between atoms: C_1  and  C_2 
REMARK    2  A    between atoms: C_2  and  C_15 
REMARK    3  A    between atoms: C_5  and  C_8 
REMARK    4  A    between atoms: C_8  and  C_10 
REMARK    5  A    between atoms: C_8  and  O_14 
REMARK    6  A    between atoms: C_10  and  O_12 
REMARK    7  A    between atoms: O_12  and  C_13 
ROOT
ATOM      1  C   LIG d   1       4.141   1.033  -8.946  0.00  0.00     0.165 C 
ATOM      2  O   LIG d   1       3.111   0.074  -9.233  0.00  0.00    -0.346 OA
ATOM      3  C   LIG d   1       2.480  -0.185  -7.955  0.00  0.00     0.080 C 
ATOM      4  C   LIG d   1       3.689  -0.119  -6.989  0.00  0.00     0.121 C 
ATOM      5  H   LIG d   1       4.222  -1.070  -6.972  0.00  0.00     0.065 H 
ATOM      6  O   LIG d   1       4.512   0.915  -7.566  0.00  0.00    -0.341 OA
ATOM      7  H   LIG d   1       2.023  -1.174  -7.939  0.00  0.00     0.059 H 
ATOM      8  H   LIG d   1       1.747   0.586  -7.718  0.00  0.00     0.059 H 
ENDROOT
BRANCH   4   9
ATOM      9  C   LIG d   1       3.236   0.275  -5.581  0.00  0.00     0.180 C 
ATOM     10  H   LIG d   1       3.258   1.360  -5.482  0.00  0.00     0.074 H 
BRANCH   9  11
ATOM     11  C   LIG d   1       4.161  -0.342  -4.564  0.00  0.00     0.338 C 
ATOM     12  O   LIG d   1       5.129   0.269  -4.180  0.00  0.00    -0.248 OA
BRANCH  11  13
ATOM     13  O   LIG d   1       3.909  -1.571  -4.086  0.00  0.00    -0.466 OA
BRANCH  13  14
ATOM     14  C   LIG d   1       3.635  -1.682  -2.665  0.00  0.00     0.082 C 
ATOM     15  H   LIG d   1       3.983  -2.649  -2.302  0.00  0.00     0.066 H 
ATOM     16  H   LIG d   1       4.156  -0.885  -2.131  0.00  0.00     0.066 H 
ATOM     17  H   LIG d   1       2.563  -1.594  -2.493  0.00  0.00     0.066 H 
ENDBRANCH  13  14
ENDBRANCH  11  13
ENDBRANCH   9  11
BRANCH   9  18
ATOM     18  O   LIG d   1       1.904  -0.196  -5.362  0.00  0.00    -0.378 OA
ATOM     19  H   LIG d   1       1.232   0.499  -5.392  0.00  0.00     0.211 HD
ENDBRANCH   9  18
ENDBRANCH   4   9
BRANCH   1  20
ATOM     20  C   LIG d   1       3.619   2.446  -9.220  0.00  0.00    -0.011 C 
ATOM     21  H   LIG d   1       2.682   2.597  -8.683  0.00  0.00     0.028 H 
ATOM     22  H   LIG d   1       4.353   3.177  -8.882  0.00  0.00     0.028 H 
ATOM     23  H   LIG d   1       3.449   2.569 -10.289  0.00  0.00     0.028 H 
ENDBRANCH   1  20
BRANCH   1  24
ATOM     24  C   LIG d   1       5.358   0.756  -9.831  0.00  0.00    -0.011 C 
ATOM     25  H   LIG d   1       5.239   1.268 -10.785  0.00  0.00     0.028 H 
ATOM     26  H   LIG d   1       6.259   1.117  -9.334  0.00  0.00     0.028 H 
ATOM     27  H   LIG d   1       5.444  -0.317 -10.002  0.00  0.00     0.028 H 
ENDBRANCH   1  24
TORSDOF 7
ENDMDL
MODEL 6
REMARK VINA RESULT:      -3.9      2.634      4.353
REMARK  7 active torsions:
REMARK  status: ('A' for Active; 'I' for Inactive)
REMARK    1  A    between atoms: C_1  and  C_2 
REMARK    2  A    between atoms: C_2  and  C_15 
REMARK    3  A    between atoms: C_5  and  C_8 
REMARK    4  A    between atoms: C_8  and  C_10 
REMARK    5  A    between atoms: C_8  and  O_14 
REMARK    6  A    between atoms: C_10  and  O_12 
REMARK    7  A    between atoms: O_12  and  C_13 
ROOT
ATOM      1  C   LIG d   1       7.444   0.761  -4.668  0.00  0.00     0.165 C 
ATOM      2  O   LIG d   1       7.988  -0.423  -4.063  0.00  0.00    -0.346 OA
ATOM      3  C   LIG d   1       6.843  -1.112  -3.505  0.00  0.00     0.080 C 
ATOM      4  C   LIG d   1       5.967   0.071  -3.024  0.00  0.00     0.121 C 
ATOM      5  H   LIG d   1       6.294   0.420  -2.044  0.00  0.00     0.065 H 
ATOM      6  O   LIG d   1       6.202   1.080  -4.028  0.00  0.00    -0.341 OA
ATOM      7  H   LIG d   1       7.138  -1.744  -2.667  0.00  0.00     0.059 H 
ATOM      8  H   LIG d   1       6.328  -1.695  -4.268  0.00  0.00     0.059 H 
ENDROOT
BRANCH   4   9
ATOM      9  C   LIG d   1       4.490  -0.326  -2.994  0.00  0.00     0.180 C 
ATOM     10  H   LIG d   1       4.255  -0.920  -3.877  0.00  0.00     0.074 H 
BRANCH   9  11
ATOM     11  C   LIG d   1       3.635   0.915  -2.981  0.00  0.00     0.338 C 
ATOM     12  O   LIG d   1       3.453   1.512  -1.947  0.00  0.00    -0.248 OA
BRANCH  11  13
ATOM     13  O   LIG d   1       3.076   1.357  -4.118  0.00  0.00    -0.466 OA
BRANCH  13  14
ATOM     14  C   LIG d   1       2.536   0.356  -5.020  0.00  0.00     0.082 C 
ATOM     15  H   LIG d   1       3.156  -0.540  -4.983  0.00  0.00     0.066 H 
ATOM     16  H   LIG d   1       1.518   0.106  -4.718  0.00  0.00     0.066 H 
ATOM     17  H   LIG d   1       2.527   0.749  -6.036  0.00  0.00     0.066 H 
ENDBRANCH  13  14
ENDBRANCH  11  13
ENDBRANCH   9  11
BRANCH   9  18
ATOM     18  O   LIG d   1       4.228  -1.097  -1.819  0.00  0.00    -0.378 OA
ATOM     19  H   LIG d   1       3.916  -0.574  -1.067  0.00  0.00     0.211 HD
ENDBRANCH   9  18
ENDBRANCH   4   9
BRANCH   1  20
ATOM     20  C   LIG d   1       7.205   0.512  -6.159  0.00  0.00    -0.011 C 
ATOM     21  H   LIG d   1       7.592   1.353  -6.735  0.00  0.00     0.028 H 
ATOM     22  H   LIG d   1       7.717  -0.402  -6.462  0.00  0.00     0.028 H 
ATOM     23  H   LIG d   1       6.136   0.407  -6.343  0.00  0.00     0.028 H 
ENDBRANCH   1  20
BRANCH   1  24
ATOM     24  C   LIG d   1       8.426   1.921  -4.492  0.00  0.00    -0.011 C 
ATOM     25  H   LIG d   1       8.543   2.445  -5.441  0.00  0.00     0.028 H 
ATOM     26  H   LIG d   1       8.042   2.611  -3.741  0.00  0.00     0.028 H 
ATOM     27  H   LIG d   1       9.392   1.533  -4.170  0.00  0.00     0.028 H 
ENDBRANCH   1  24
TORSDOF 7
ENDMDL
MODEL 7
REMARK VINA RESULT:      -3.8      3.026      4.479
REMARK  7 active torsions:
REMARK  status: ('A' for Active; 'I' for Inactive)
REMARK    1  A    between atoms: C_1  and  C_2 
REMARK    2  A    between atoms: C_2  and  C_15 
REMARK    3  A    between atoms: C_5  and  C_8 
REMARK    4  A    between atoms: C_8  and  C_10 
REMARK    5  A    between atoms: C_8  and  O_14 
REMARK    6  A    between atoms: C_10  and  O_12 
REMARK    7  A    between atoms: O_12  and  C_13 
ROOT
ATOM      1  C   LIG d   1       4.011  -1.314  -3.416  0.00  0.00     0.165 C 
ATOM      2  O   LIG d   1       4.989  -0.471  -4.046  0.00  0.00    -0.346 OA
ATOM      3  C   LIG d   1       5.174  -1.041  -5.365  0.00  0.00     0.080 C 
ATOM      4  C   LIG d   1       5.046  -2.557  -5.073  0.00  0.00     0.121 C 
ATOM      5  H   LIG d   1       5.993  -2.961  -4.714  0.00  0.00     0.065 H 
ATOM      6  O   LIG d   1       4.045  -2.606  -4.035  0.00  0.00    -0.341 OA
ATOM      7  H   LIG d   1       6.161  -0.802  -5.758  0.00  0.00     0.059 H 
ATOM      8  H   LIG d   1       4.392  -0.707  -6.047  0.00  0.00     0.059 H 
ENDROOT
BRANCH   4   9
ATOM      9  C   LIG d   1       4.572  -3.310  -6.317  0.00  0.00     0.180 C 
ATOM     10  H   LIG d   1       3.610  -2.910  -6.639  0.00  0.00     0.074 H 
BRANCH   9  11
ATOM     11  C   LIG d   1       4.425  -4.774  -5.994  0.00  0.00     0.338 C 
ATOM     12  O   LIG d   1       3.383  -5.341  -6.222  0.00  0.00    -0.248 OA
BRANCH  11  13
ATOM     13  O   LIG d   1       5.452  -5.448  -5.453  0.00  0.00    -0.466 OA
BRANCH  13  14
ATOM     14  C   LIG d   1       5.919  -6.623  -6.167  0.00  0.00     0.082 C 
ATOM     15  H   LIG d   1       5.508  -6.622  -7.177  0.00  0.00     0.066 H 
ATOM     16  H   LIG d   1       7.008  -6.608  -6.217  0.00  0.00     0.066 H 
ATOM     17  H   LIG d   1       5.591  -7.520  -5.642  0.00  0.00     0.066 H 
ENDBRANCH  13  14
ENDBRANCH  11  13
ENDBRANCH   9  11
BRANCH   9  18
ATOM     18  O   LIG d   1       5.529  -3.146  -7.366  0.00  0.00    -0.378 OA
ATOM     19  H   LIG d   1       5.291  -2.470  -8.014  0.00  0.00     0.211 HD
ENDBRANCH   9  18
ENDBRANCH   4   9
BRANCH   1  20
ATOM     20  C   LIG d   1       2.619  -0.700  -3.583  0.00  0.00    -0.011 C 
ATOM     21  H   LIG d   1       1.878  -1.496  -3.664  0.00  0.00     0.028 H 
ATOM     22  H   LIG d   1       2.390  -0.077  -2.720  0.00  0.00     0.028 H 
ATOM     23  H   LIG d   1       2.597  -0.091  -4.487  0.00  0.00     0.028 H 
ENDBRANCH   1  20
BRANCH   1  24
ATOM     24  C   LIG d   1       4.336  -1.449  -1.927  0.00  0.00    -0.011 C 
ATOM     25  H   LIG d   1       5.097  -2.217  -1.789  0.00  0.00     0.028 H 
ATOM     26  H   LIG d   1       4.709  -0.497  -1.549  0.00  0.00     0.028 H 
ATOM     27  H   LIG d   1       3.435  -1.729  -1.382  0.00  0.00     0.028 H 
ENDBRANCH   1  24
TORSDOF 7
ENDMDL
MODEL 8
REMARK VINA RESULT:      -3.7      2.523      3.737
REMARK  7 active torsions:
REMARK  status: ('A' for Active; 'I' for Inactive)
REMARK    1  A    between atoms: C_1  and  C_2 
REMARK    2  A    between atoms: C_2  and  C_15 
REMARK    3  A    between atoms: C_5  and  C_8 
REMARK    4  A    between atoms: C_8  and  C_10 
REMARK    5  A    between atoms: C_8  and  O_14 
REMARK    6  A    between atoms: C_10  and  O_12 
REMARK    7  A    between atoms: O_12  and  C_13 
ROOT
ATOM      1  C   LIG d   1       3.810  -1.169  -3.352  0.00  0.00     0.165 C 
ATOM      2  O   LIG d   1       3.797  -2.548  -3.754  0.00  0.00    -0.346 OA
ATOM      3  C   LIG d   1       4.914  -2.678  -4.666  0.00  0.00     0.080 C 
ATOM      4  C   LIG d   1       4.882  -1.314  -5.399  0.00  0.00     0.121 C 
ATOM      5  H   LIG d   1       4.156  -1.330  -6.212  0.00  0.00     0.065 H 
ATOM      6  O   LIG d   1       4.468  -0.398  -4.365  0.00  0.00    -0.341 OA
ATOM      7  H   LIG d   1       4.755  -3.499  -5.364  0.00  0.00     0.059 H 
ATOM      8  H   LIG d   1       5.850  -2.807  -4.122  0.00  0.00     0.059 H 
ENDROOT
BRANCH   4   9
ATOM      9  C   LIG d   1       6.272  -0.947  -5.921  0.00  0.00     0.180 C 
ATOM     10  H   LIG d   1       6.826  -1.857  -6.153  0.00  0.00     0.074 H 
BRANCH   9  11
ATOM     11  C   LIG d   1       7.013  -0.162  -4.869  0.00  0.00     0.338 C 
ATOM     12  O   LIG d   1       7.573  -0.740  -3.967  0.00  0.00    -0.248 OA
BRANCH  11  13
ATOM     13  O   LIG d   1       7.052   1.178  -4.935  0.00  0.00    -0.466 OA
BRANCH  13  14
ATOM     14  C   LIG d   1       7.804   1.867  -3.902  0.00  0.00     0.082 C 
ATOM     15  H   LIG d   1       7.129   2.171  -3.102  0.00  0.00     0.066 H 
ATOM     16  H   LIG d   1       8.566   1.198  -3.500  0.00  0.00     0.066 H 
ATOM     17  H   LIG d   1       8.283   2.748  -4.328  0.00  0.00     0.066 H 
ENDBRANCH  13  14
ENDBRANCH  11  13
ENDBRANCH   9  11
BRANCH   9  18
ATOM     18  O   LIG d   1       6.143  -0.154  -7.104  0.00  0.00    -0.378 OA
ATOM     19  H   LIG d   1       6.116   0.798  -6.938  0.00  0.00     0.211 HD
ENDBRANCH   9  18
ENDBRANCH   4   9
BRANCH   1  20
ATOM     20  C   LIG d   1       4.562  -1.026  -2.027  0.00  0.00    -0.011 C 
ATOM     21  H   LIG d   1       4.030  -0.329  -1.380  0.00  0.00     0.028 H 
ATOM     22  H   LIG d   1       4.626  -1.999  -1.539  0.00  0.00     0.028 H 
ATOM     23  H   LIG d   1       5.566  -0.650  -2.219  0.00  0.00     0.028 H 
ENDBRANCH   1  20
BRANCH   1  24
ATOM     24  C   LIG d   1       2.372  -0.673  -3.182  0.00  0.00    -0.011 C 
ATOM     25  H   LIG d   1       1.967  -0.392  -4.154  0.00  0.00     0.028 H 
ATOM     26  H   LIG d   1       1.763  -1.467  -2.750  0.00  0.00     0.028 H 
ATOM     27  H   LIG d   1       2.363   0.193  -2.520  0.00  0.00     0.028 H 
ENDBRANCH   1  24
TORSDOF 7
ENDMDL
MODEL 9
REMARK VINA RESULT:      -3.7      1.956      5.595
REMARK  7 active torsions:
REMARK  status: ('A' for Active; 'I' for Inactive)
REMARK    1  A    between atoms: C_1  and  C_2 
REMARK    2  A    between atoms: C_2  and  C_15 
REMARK    3  A    between atoms: C_5  and  C_8 
REMARK    4  A    between atoms: C_8  and  C_10 
REMARK    5  A    between atoms: C_8  and  O_14 
REMARK    6  A    between atoms: C_10  and  O_12 
REMARK    7  A    between atoms: O_12  and  C_13 
ROOT
ATOM      1  C   LIG d   1       2.500  -0.242  -9.718  0.00  0.00     0.165 C 
ATOM      2  O   LIG d   1       2.330   1.136  -9.348  0.00  0.00    -0.346 OA
ATOM      3  C   LIG d   1       3.098   1.290  -8.130  0.00  0.00     0.080 C 
ATOM      4  C   LIG d   1       2.865  -0.076  -7.437  0.00  0.00     0.121 C 
ATOM      5  H   LIG d   1       1.918  -0.078  -6.897  0.00  0.00     0.065 H 
ATOM      6  O   LIG d   1       2.820  -1.000  -8.544  0.00  0.00    -0.341 OA
ATOM      7  H   LIG d   1       2.707   2.106  -7.523  0.00  0.00     0.059 H 
ATOM      8  H   LIG d   1       4.154   1.440  -8.350  0.00  0.00     0.059 H 
ENDROOT
BRANCH   4   9
ATOM      9  C   LIG d   1       4.026  -0.413  -6.500  0.00  0.00     0.180 C 
ATOM     10  H   LIG d   1       4.307  -1.458  -6.630  0.00  0.00     0.074 H 
BRANCH   9  11
ATOM     11  C   LIG d   1       3.603  -0.180  -5.072  0.00  0.00     0.338 C 
ATOM     12  O   LIG d   1       3.142   0.888  -4.746  0.00  0.00    -0.248 OA
BRANCH  11  13
ATOM     13  O   LIG d   1       3.739  -1.159  -4.164  0.00  0.00    -0.466 OA
BRANCH  13  14
ATOM     14  C   LIG d   1       2.931  -1.060  -2.962  0.00  0.00     0.082 C 
ATOM     15  H   LIG d   1       3.341  -1.716  -2.194  0.00  0.00     0.066 H 
ATOM     16  H   LIG d   1       2.939  -0.031  -2.602  0.00  0.00     0.066 H 
ATOM     17  H   LIG d   1       1.908  -1.359  -3.186  0.00  0.00     0.066 H 
ENDBRANCH  13  14
ENDBRANCH  11  13
ENDBRANCH   9  11
BRANCH   9  18
ATOM     18  O   LIG d   1       5.144   0.423  -6.808  0.00  0.00    -0.378 OA
ATOM     19  H   LIG d   1       5.870   0.357  -6.173  0.00  0.00     0.211 HD
ENDBRANCH   9  18
ENDBRANCH   4   9
BRANCH   1  20
ATOM     20  C   LIG d   1       3.636  -0.364 -10.736  0.00  0.00    -0.011 C 
ATOM     21  H   LIG d   1       3.537   0.418 -11.488  0.00  0.00     0.028 H 
ATOM     22  H   LIG d   1       4.594  -0.259 -10.226  0.00  0.00     0.028 H 
ATOM     23  H   LIG d   1       3.588  -1.340 -11.218  0.00  0.00     0.028 H 
ENDBRANCH   1  20
BRANCH   1  24
ATOM     24  C   LIG d   1       1.201  -0.769 -10.332  0.00  0.00    -0.011 C 
ATOM     25  H   LIG d   1       0.367  -0.540  -9.670  0.00  0.00     0.028 H 
ATOM     26  H   LIG d   1       1.039  -0.295 -11.300  0.00  0.00     0.028 H 
ATOM     27  H   LIG d   1       1.275  -1.849 -10.465  0.00  0.00     0.028 H 
ENDBRANCH   1  24
TORSDOF 7
ENDMDL
MODEL 10
REMARK VINA RESULT:      -3.6      2.657      4.524
REMARK  7 active torsions:
REMARK  status: ('A' for Active; 'I' for Inactive)
REMARK    1  A    between atoms: C_1  and  C_2 
REMARK    2  A    between atoms: C_2  and  C_15 
REMARK    3  A    between atoms: C_5  and  C_8 
REMARK    4  A    between atoms: C_8  and  C_10 
REMARK    5  A    between atoms: C_8  and  O_14 
REMARK    6  A    between atoms: C_10  and  O_12 
REMARK    7  A    between atoms: O_12  and  C_13 
ROOT
ATOM      1  C   LIG d   1       6.918  -2.571  -4.337  0.00  0.00     0.165 C 
ATOM      2  O   LIG d   1       7.321  -1.541  -5.254  0.00  0.00    -0.346 OA
ATOM      3  C   LIG d   1       6.901  -0.304  -4.628  0.00  0.00     0.080 C 
ATOM      4  C   LIG d   1       5.570  -0.727  -3.958  0.00  0.00     0.121 C 
ATOM      5  H   LIG d   1       4.750  -0.698  -4.676  0.00  0.00     0.065 H 
ATOM      6  O   LIG d   1       5.832  -2.082  -3.540  0.00  0.00    -0.341 OA
ATOM      7  H   LIG d   1       6.732   0.472  -5.374  0.00  0.00     0.059 H 
ATOM      8  H   LIG d   1       7.626   0.023  -3.884  0.00  0.00     0.059 H 
ENDROOT
BRANCH   4   9
ATOM      9  C   LIG d   1       5.266   0.161  -2.750  0.00  0.00     0.180 C 
ATOM     10  H   LIG d   1       5.510  -0.375  -1.834  0.00  0.00     0.074 H 
BRANCH   9  11
ATOM     11  C   LIG d   1       3.803   0.522  -2.747  0.00  0.00     0.338 C 
ATOM     12  O   LIG d   1       3.400   1.405  -2.028  0.00  0.00    -0.248 OA
BRANCH  11  13
ATOM     13  O   LIG d   1       2.947  -0.137  -3.544  0.00  0.00    -0.466 OA
BRANCH  13  14
ATOM     14  C   LIG d   1       2.432   0.581  -4.696  0.00  0.00     0.082 C 
ATOM     15  H   LIG d   1       3.187   0.597  -5.482  0.00  0.00     0.066 H 
ATOM     16  H   LIG d   1       1.535   0.082  -5.064  0.00  0.00     0.066 H 
ATOM     17  H   LIG d   1       2.187   1.603  -4.407  0.00  0.00     0.066 H 
ENDBRANCH  13  14
ENDBRANCH  11  13
ENDBRANCH   9  11
BRANCH   9  18
ATOM     18  O   LIG d   1       6.051   1.354  -2.828  0.00  0.00    -0.378 OA
ATOM     19  H   LIG d   1       5.586   2.149  -2.534  0.00  0.00     0.211 HD
ENDBRANCH   9  18
ENDBRANCH   4   9
BRANCH   1  20
ATOM     20  C   LIG d   1       8.095  -2.941  -3.431  0.00  0.00    -0.011 C 
ATOM     21  H   LIG d   1       8.532  -3.881  -3.769  0.00  0.00     0.028 H 
ATOM     22  H   LIG d   1       8.848  -2.155  -3.473  0.00  0.00     0.028 H 
ATOM     23  H   LIG d   1       7.743  -3.053  -2.406  0.00  0.00     0.028 H 
ENDBRANCH   1  20
BRANCH   1  24
ATOM     24  C   LIG d   1       6.466  -3.804  -5.122  0.00  0.00    -0.011 C 
ATOM     25  H   LIG d   1       6.608  -3.629  -6.188  0.00  0.00     0.028 H 
ATOM     26  H   LIG d   1       7.057  -4.667  -4.814  0.00  0.00     0.028 H 
ATOM     27  H   LIG d   1       5.412  -3.996  -4.921  0.00  0.00     0.028 H 
ENDBRANCH   1  24
TORSDOF 7
ENDMDL
