MODEL 1
REMARK VINA RESULT:      -6.4      0.000      0.000
REMARK  4 active torsions:
REMARK  status: ('A' for Active; 'I' for Inactive)
REMARK    1  A    between atoms: C_1  and  O_2 
REMARK    2  A    between atoms: O_2  and  C_3 
REMARK    3  A    between atoms: C_6  and  C_9 
REMARK    4  A    between atoms: C_18  and  O_21 
ROOT
ATOM      1  C   LIG d   1       3.330  -0.395  -6.755  0.00  0.00     0.091 C 
ATOM      2  H   LIG d   1       2.585  -1.177  -6.612  0.00  0.00     0.065 H 
ATOM      3  C   LIG d   1       4.656  -0.821  -6.124  0.00  0.00     0.003 C 
ATOM      4  C   LIG d   1       4.533  -0.808  -4.621  0.00  0.00    -0.037 A 
ATOM      5  C   LIG d   1       5.478  -1.485  -3.868  0.00  0.00    -0.058 A 
ATOM      6  C   LIG d   1       5.400  -1.485  -2.489  0.00  0.00    -0.061 A 
ATOM      7  C   LIG d   1       4.375  -0.805  -1.858  0.00  0.00    -0.061 A 
ATOM      8  C   LIG d   1       3.432  -0.131  -2.608  0.00  0.00    -0.053 A 
ATOM      9  C   LIG d   1       3.508  -0.132  -3.992  0.00  0.00     0.011 A 
ATOM     10  C   LIG d   1       2.457   0.610  -4.775  0.00  0.00     0.184 C 
ATOM     11  H   LIG d   1       2.274   1.577  -4.306  0.00  0.00     0.096 H 
ATOM     12  O   LIG d   1       2.892   0.811  -6.120  0.00  0.00    -0.339 OA
ATOM     13  H   LIG d   1       4.909  -1.828  -6.457  0.00  0.00     0.034 H 
ATOM     14  H   LIG d   1       5.442  -0.131  -6.429  0.00  0.00     0.034 H 
ATOM     15  H   LIG d   1       6.279  -2.016  -4.361  0.00  0.00     0.062 H 
ATOM     16  H   LIG d   1       6.139  -2.014  -1.905  0.00  0.00     0.062 H 
ATOM     17  H   LIG d   1       4.313  -0.800  -0.780  0.00  0.00     0.062 H 
ATOM     18  H   LIG d   1       2.631   0.399  -2.113  0.00  0.00     0.062 H 
ENDROOT
BRANCH   1  19
ATOM     19  C   LIG d   1       3.527  -0.148  -8.228  0.00  0.00    -0.018 A 
ATOM     20  C   LIG d   1       3.458   1.140  -8.727  0.00  0.00    -0.053 A 
ATOM     21  C   LIG d   1       3.645   1.371 -10.077  0.00  0.00    -0.020 A 
ATOM     22  H   LIG d   1       3.264   1.967  -8.061  0.00  0.00     0.062 H 
ATOM     23  C   LIG d   1       3.894   0.308 -10.932  0.00  0.00     0.120 A 
ATOM     24  H   LIG d   1       3.595   2.377 -10.465  0.00  0.00     0.065 H 
ATOM     25  C   LIG d   1       3.958  -0.984 -10.431  0.00  0.00    -0.020 A 
ATOM     26  C   LIG d   1       3.770  -1.210  -9.081  0.00  0.00    -0.053 A 
ATOM     27  H   LIG d   1       4.152  -1.812 -11.095  0.00  0.00     0.065 H 
ATOM     28  H   LIG d   1       3.820  -2.215  -8.689  0.00  0.00     0.062 H 
BRANCH  23  29
ATOM     29  O   LIG d   1       4.078   0.533 -12.260  0.00  0.00    -0.495 OA
BRANCH  29  30
ATOM     30  C   LIG d   1       4.513  -0.576 -13.051  0.00  0.00     0.079 C 
ATOM     31  H   LIG d   1       5.006  -1.308 -12.411  0.00  0.00     0.066 H 
ATOM     32  H   LIG d   1       3.652  -1.038 -13.534  0.00  0.00     0.066 H 
ATOM     33  H   LIG d   1       5.213  -0.228 -13.811  0.00  0.00     0.066 H 
ENDBRANCH  29  30
ENDBRANCH  23  29
ENDBRANCH   1  19
BRANCH  10  34
ATOM     34  O   LIG d   1       1.246  -0.147  -4.778  0.00  0.00    -0.363 OA
ATOM     35  H   LIG d   1       0.863  -0.282  -3.900  0.00  0.00     0.213 HD
ENDBRANCH  10  34
TORSDOF 4
ENDMDL
MODEL 2
REMARK VINA RESULT:      -6.4      1.991      2.835
REMARK  4 active torsions:
REMARK  status: ('A' for Active; 'I' for Inactive)
REMARK    1  A    between atoms: C_1  and  O_2 
REMARK    2  A    between atoms: O_2  and  C_3 
REMARK    3  A    between atoms: C_6  and  C_9 
REMARK    4  A    between atoms: C_18  and  O_21 
ROOT
ATOM      1  C   LIG d   1       3.997  -0.666  -6.639  0.00  0.00     0.091 C 
ATOM      2  H   LIG d   1       4.897  -0.089  -6.847  0.00  0.00     0.065 H 
ATOM      3  C   LIG d   1       3.069   0.133  -5.723  0.00  0.00     0.003 C 
ATOM      4  C   LIG d   1       3.665   0.218  -4.341  0.00  0.00    -0.037 A 
ATOM      5  C   LIG d   1       3.182   1.174  -3.462  0.00  0.00    -0.058 A 
ATOM      6  C   LIG d   1       3.698   1.272  -2.185  0.00  0.00    -0.061 A 
ATOM      7  C   LIG d   1       4.703   0.412  -1.782  0.00  0.00    -0.061 A 
ATOM      8  C   LIG d   1       5.187  -0.540  -2.657  0.00  0.00    -0.053 A 
ATOM      9  C   LIG d   1       4.669  -0.639  -3.939  0.00  0.00     0.011 A 
ATOM     10  C   LIG d   1       5.227  -1.687  -4.867  0.00  0.00     0.184 C 
ATOM     11  H   LIG d   1       5.341  -2.625  -4.323  0.00  0.00     0.096 H 
ATOM     12  O   LIG d   1       4.349  -1.885  -5.974  0.00  0.00    -0.339 OA
ATOM     13  H   LIG d   1       2.943   1.139  -6.124  0.00  0.00     0.034 H 
ATOM     14  H   LIG d   1       2.099  -0.359  -5.669  0.00  0.00     0.034 H 
ATOM     15  H   LIG d   1       2.397   1.846  -3.778  0.00  0.00     0.062 H 
ATOM     16  H   LIG d   1       3.319   2.019  -1.504  0.00  0.00     0.062 H 
ATOM     17  H   LIG d   1       5.107   0.484  -0.783  0.00  0.00     0.062 H 
ATOM     18  H   LIG d   1       5.971  -1.212  -2.341  0.00  0.00     0.062 H 
ENDROOT
BRANCH   1  19
ATOM     19  C   LIG d   1       3.286  -0.981  -7.929  0.00  0.00    -0.018 A 
ATOM     20  C   LIG d   1       3.521  -2.183  -8.571  0.00  0.00    -0.053 A 
ATOM     21  C   LIG d   1       2.867  -2.478  -9.752  0.00  0.00    -0.020 A 
ATOM     22  H   LIG d   1       4.213  -2.896  -8.146  0.00  0.00     0.062 H 
ATOM     23  C   LIG d   1       1.979  -1.562 -10.297  0.00  0.00     0.120 A 
ATOM     24  H   LIG d   1       3.047  -3.418 -10.249  0.00  0.00     0.065 H 
ATOM     25  C   LIG d   1       1.749  -0.354  -9.655  0.00  0.00    -0.020 A 
ATOM     26  C   LIG d   1       2.406  -0.064  -8.475  0.00  0.00    -0.053 A 
ATOM     27  H   LIG d   1       1.058   0.360 -10.078  0.00  0.00     0.065 H 
ATOM     28  H   LIG d   1       2.228   0.876  -7.974  0.00  0.00     0.062 H 
BRANCH  23  29
ATOM     29  O   LIG d   1       1.334  -1.849 -11.459  0.00  0.00    -0.495 OA
BRANCH  29  30
ATOM     30  C   LIG d   1       2.075  -1.683 -12.669  0.00  0.00     0.079 C 
ATOM     31  H   LIG d   1       1.406  -1.794 -13.523  0.00  0.00     0.066 H 
ATOM     32  H   LIG d   1       2.525  -0.691 -12.687  0.00  0.00     0.066 H 
ATOM     33  H   LIG d   1       2.858  -2.439 -12.722  0.00  0.00     0.066 H 
ENDBRANCH  29  30
ENDBRANCH  23  29
ENDBRANCH   1  19
BRANCH  10  34
ATOM     34  O   LIG d   1       6.505  -1.264  -5.346  0.00  0.00    -0.363 OA
ATOM     35  H   LIG d   1       7.238  -1.830  -5.067  0.00  0.00     0.213 HD
ENDBRANCH  10  34
TORSDOF 4
ENDMDL
MODEL 3
REMARK VINA RESULT:      -6.1      4.970      6.268
REMARK  4 active torsions:
REMARK  status: ('A' for Active; 'I' for Inactive)
REMARK    1  A    between atoms: C_1  and  O_2 
REMARK    2  A    between atoms: O_2  and  C_3 
REMARK    3  A    between atoms: C_6  and  C_9 
REMARK    4  A    between atoms: C_18  and  O_21 
ROOT
ATOM      1  C   LIG d   1       5.779  -2.943  -4.767  0.00  0.00     0.091 C 
ATOM      2  H   LIG d   1       5.812  -2.314  -5.656  0.00  0.00     0.065 H 
ATOM      3  C   LIG d   1       4.471  -2.705  -4.012  0.00  0.00     0.003 C 
ATOM      4  C   LIG d   1       4.489  -1.337  -3.378  0.00  0.00    -0.037 A 
ATOM      5  C   LIG d   1       3.292  -0.782  -2.954  0.00  0.00    -0.058 A 
ATOM      6  C   LIG d   1       3.274   0.465  -2.360  0.00  0.00    -0.061 A 
ATOM      7  C   LIG d   1       4.456   1.162  -2.188  0.00  0.00    -0.061 A 
ATOM      8  C   LIG d   1       5.649   0.610  -2.611  0.00  0.00    -0.053 A 
ATOM      9  C   LIG d   1       5.668  -0.641  -3.209  0.00  0.00     0.011 A 
ATOM     10  C   LIG d   1       6.988  -1.207  -3.662  0.00  0.00     0.184 C 
ATOM     11  H   LIG d   1       7.738  -1.033  -2.890  0.00  0.00     0.096 H 
ATOM     12  O   LIG d   1       6.870  -2.609  -3.900  0.00  0.00    -0.339 OA
ATOM     13  H   LIG d   1       3.634  -2.770  -4.708  0.00  0.00     0.034 H 
ATOM     14  H   LIG d   1       4.357  -3.462  -3.237  0.00  0.00     0.034 H 
ATOM     15  H   LIG d   1       2.369  -1.327  -3.089  0.00  0.00     0.062 H 
ATOM     16  H   LIG d   1       2.339   0.894  -2.032  0.00  0.00     0.062 H 
ATOM     17  H   LIG d   1       4.446   2.135  -1.721  0.00  0.00     0.062 H 
ATOM     18  H   LIG d   1       6.571   1.155  -2.476  0.00  0.00     0.062 H 
ENDROOT
BRANCH   1  19
ATOM     19  C   LIG d   1       5.877  -4.392  -5.167  0.00  0.00    -0.018 A 
ATOM     20  C   LIG d   1       4.727  -5.127  -5.384  0.00  0.00    -0.053 A 
ATOM     21  C   LIG d   1       4.813  -6.455  -5.758  0.00  0.00    -0.020 A 
ATOM     22  H   LIG d   1       3.759  -4.662  -5.267  0.00  0.00     0.062 H 
ATOM     23  C   LIG d   1       6.056  -7.051  -5.908  0.00  0.00     0.120 A 
ATOM     24  H   LIG d   1       3.914  -7.027  -5.932  0.00  0.00     0.065 H 
ATOM     25  C   LIG d   1       7.210  -6.314  -5.685  0.00  0.00    -0.020 A 
ATOM     26  C   LIG d   1       7.118  -4.986  -5.311  0.00  0.00    -0.053 A 
ATOM     27  H   LIG d   1       8.178  -6.776  -5.801  0.00  0.00     0.065 H 
ATOM     28  H   LIG d   1       8.015  -4.411  -5.137  0.00  0.00     0.062 H 
BRANCH  23  29
ATOM     29  O   LIG d   1       6.144  -8.357  -6.276  0.00  0.00    -0.495 OA
BRANCH  29  30
ATOM     30  C   LIG d   1       5.027  -9.193  -5.966  0.00  0.00     0.079 C 
ATOM     31  H   LIG d   1       4.969  -9.338  -4.887  0.00  0.00     0.066 H 
ATOM     32  H   LIG d   1       4.110  -8.722  -6.319  0.00  0.00     0.066 H 
ATOM     33  H   LIG d   1       5.151 -10.160  -6.456  0.00  0.00     0.066 H 
ENDBRANCH  29  30
ENDBRANCH  23  29
ENDBRANCH   1  19
BRANCH  10  34
ATOM     34  O   LIG d   1       7.394  -0.555  -4.867  0.00  0.00    -0.363 OA
ATOM     35  H   LIG d   1       7.989   0.195  -4.728  0.00  0.00     0.213 HD
ENDBRANCH  10  34
TORSDOF 4
ENDMDL
MODEL 4
REMARK VINA RESULT:      -6.0      5.144      6.511
REMARK  4 active torsions:
REMARK  status: ('A' for Active; 'I' for Inactive)
REMARK    1  A    between atoms: C_1  and  O_2 
REMARK    2  A    between atoms: O_2  and  C_3 
REMARK    3  A    between atoms: C_6  and  C_9 
REMARK    4  A    between atoms: C_18  and  O_21 
ROOT
ATOM      1  C   LIG d   1       8.026   1.061  -4.026  0.00  0.00     0.091 C 
ATOM      2  H   LIG d   1       8.663   0.581  -3.283  0.00  0.00     0.065 H 
ATOM      3  C   LIG d   1       6.702   1.477  -3.384  0.00  0.00     0.003 C 
ATOM      4  C   LIG d   1       5.880   0.253  -3.071  0.00  0.00    -0.037 A 
ATOM      5  C   LIG d   1       4.823   0.367  -2.182  0.00  0.00    -0.058 A 
ATOM      6  C   LIG d   1       4.044  -0.732  -1.880  0.00  0.00    -0.061 A 
ATOM      7  C   LIG d   1       4.320  -1.953  -2.468  0.00  0.00    -0.061 A 
ATOM      8  C   LIG d   1       5.374  -2.069  -3.352  0.00  0.00    -0.053 A 
ATOM      9  C   LIG d   1       6.157  -0.966  -3.655  0.00  0.00     0.011 A 
ATOM     10  C   LIG d   1       7.302  -1.134  -4.620  0.00  0.00     0.184 C 
ATOM     11  H   LIG d   1       6.972  -1.734  -5.469  0.00  0.00     0.096 H 
ATOM     12  O   LIG d   1       7.746   0.140  -5.086  0.00  0.00    -0.339 OA
ATOM     13  H   LIG d   1       6.902   2.024  -2.462  0.00  0.00     0.034 H 
ATOM     14  H   LIG d   1       6.150   2.117  -4.072  0.00  0.00     0.034 H 
ATOM     15  H   LIG d   1       4.608   1.321  -1.723  0.00  0.00     0.062 H 
ATOM     16  H   LIG d   1       3.221  -0.638  -1.187  0.00  0.00     0.062 H 
ATOM     17  H   LIG d   1       3.711  -2.814  -2.237  0.00  0.00     0.062 H 
ATOM     18  H   LIG d   1       5.588  -3.023  -3.811  0.00  0.00     0.062 H 
ENDROOT
BRANCH   1  19
ATOM     19  C   LIG d   1       8.723   2.275  -4.582  0.00  0.00    -0.018 A 
ATOM     20  C   LIG d   1       8.868   2.423  -5.949  0.00  0.00    -0.053 A 
ATOM     21  C   LIG d   1       9.501   3.538  -6.463  0.00  0.00    -0.020 A 
ATOM     22  H   LIG d   1       8.480   1.668  -6.617  0.00  0.00     0.062 H 
ATOM     23  C   LIG d   1       9.999   4.508  -5.604  0.00  0.00     0.120 A 
ATOM     24  H   LIG d   1       9.609   3.655  -7.530  0.00  0.00     0.065 H 
ATOM     25  C   LIG d   1       9.858   4.355  -4.232  0.00  0.00    -0.020 A 
ATOM     26  C   LIG d   1       9.224   3.238  -3.724  0.00  0.00    -0.053 A 
ATOM     27  H   LIG d   1      10.244   5.108  -3.562  0.00  0.00     0.065 H 
ATOM     28  H   LIG d   1       9.113   3.118  -2.656  0.00  0.00     0.062 H 
BRANCH  23  29
ATOM     29  O   LIG d   1      10.622   5.606  -6.106  0.00  0.00    -0.495 OA
BRANCH  29  30
ATOM     30  C   LIG d   1       9.942   6.321  -7.140  0.00  0.00     0.079 C 
ATOM     31  H   LIG d   1      10.581   6.382  -8.021  0.00  0.00     0.066 H 
ATOM     32  H   LIG d   1       9.019   5.801  -7.396  0.00  0.00     0.066 H 
ATOM     33  H   LIG d   1       9.707   7.327  -6.792  0.00  0.00     0.066 H 
ENDBRANCH  29  30
ENDBRANCH  23  29
ENDBRANCH   1  19
BRANCH  10  34
ATOM     34  O   LIG d   1       8.381  -1.801  -3.964  0.00  0.00    -0.363 OA
ATOM     35  H   LIG d   1       8.600  -1.435  -3.096  0.00  0.00     0.213 HD
ENDBRANCH  10  34
TORSDOF 4
ENDMDL
MODEL 5
REMARK VINA RESULT:      -5.7      4.718      6.822
REMARK  4 active torsions:
REMARK  status: ('A' for Active; 'I' for Inactive)
REMARK    1  A    between atoms: C_1  and  O_2 
REMARK    2  A    between atoms: O_2  and  C_3 
REMARK    3  A    between atoms: C_6  and  C_9 
REMARK    4  A    between atoms: C_18  and  O_21 
ROOT
ATOM      1  C   LIG d   1       6.922  -2.512  -3.693  0.00  0.00     0.091 C 
ATOM      2  H   LIG d   1       6.547  -3.190  -2.926  0.00  0.00     0.065 H 
ATOM      3  C   LIG d   1       6.903  -1.075  -3.170  0.00  0.00     0.003 C 
ATOM      4  C   LIG d   1       5.479  -0.594  -3.054  0.00  0.00    -0.037 A 
ATOM      5  C   LIG d   1       5.213   0.526  -2.281  0.00  0.00    -0.058 A 
ATOM      6  C   LIG d   1       3.922   0.999  -2.162  0.00  0.00    -0.061 A 
ATOM      7  C   LIG d   1       2.889   0.353  -2.815  0.00  0.00    -0.061 A 
ATOM      8  C   LIG d   1       3.152  -0.764  -3.583  0.00  0.00    -0.053 A 
ATOM      9  C   LIG d   1       4.448  -1.241  -3.703  0.00  0.00     0.011 A 
ATOM     10  C   LIG d   1       4.693  -2.465  -4.546  0.00  0.00     0.184 C 
ATOM     11  H   LIG d   1       4.125  -2.384  -5.473  0.00  0.00     0.096 H 
ATOM     12  O   LIG d   1       6.083  -2.585  -4.851  0.00  0.00    -0.339 OA
ATOM     13  H   LIG d   1       7.377  -1.040  -2.189  0.00  0.00     0.034 H 
ATOM     14  H   LIG d   1       7.447  -0.431  -3.859  0.00  0.00     0.034 H 
ATOM     15  H   LIG d   1       6.021   1.030  -1.771  0.00  0.00     0.062 H 
ATOM     16  H   LIG d   1       3.719   1.872  -1.559  0.00  0.00     0.062 H 
ATOM     17  H   LIG d   1       1.878   0.722  -2.726  0.00  0.00     0.062 H 
ATOM     18  H   LIG d   1       2.344  -1.268  -4.093  0.00  0.00     0.062 H 
ENDROOT
BRANCH   1  19
ATOM     19  C   LIG d   1       8.330  -2.897  -4.064  0.00  0.00    -0.018 A 
ATOM     20  C   LIG d   1       8.922  -2.349  -5.187  0.00  0.00    -0.053 A 
ATOM     21  C   LIG d   1      10.216  -2.696  -5.527  0.00  0.00    -0.020 A 
ATOM     22  H   LIG d   1       8.375  -1.646  -5.796  0.00  0.00     0.062 H 
ATOM     23  C   LIG d   1      10.918  -3.600  -4.743  0.00  0.00     0.120 A 
ATOM     24  H   LIG d   1      10.680  -2.264  -6.401  0.00  0.00     0.065 H 
ATOM     25  C   LIG d   1      10.321  -4.154  -3.620  0.00  0.00    -0.020 A 
ATOM     26  C   LIG d   1       9.026  -3.804  -3.285  0.00  0.00    -0.053 A 
ATOM     27  H   LIG d   1      10.865  -4.858  -3.009  0.00  0.00     0.065 H 
ATOM     28  H   LIG d   1       8.560  -4.233  -2.411  0.00  0.00     0.062 H 
BRANCH  23  29
ATOM     29  O   LIG d   1      12.191  -3.943  -5.075  0.00  0.00    -0.495 OA
BRANCH  29  30
ATOM     30  C   LIG d   1      13.033  -4.411  -4.019  0.00  0.00     0.079 C 
ATOM     31  H   LIG d   1      13.802  -5.065  -4.430  0.00  0.00     0.066 H 
ATOM     32  H   LIG d   1      13.504  -3.561  -3.526  0.00  0.00     0.066 H 
ATOM     33  H   LIG d   1      12.433  -4.964  -3.296  0.00  0.00     0.066 H 
ENDBRANCH  29  30
ENDBRANCH  23  29
ENDBRANCH   1  19
BRANCH  10  34
ATOM     34  O   LIG d   1       4.265  -3.626  -3.831  0.00  0.00    -0.363 OA
ATOM     35  H   LIG d   1       4.795  -3.824  -3.047  0.00  0.00     0.213 HD
ENDBRANCH  10  34
TORSDOF 4
ENDMDL
MODEL 6
REMARK VINA RESULT:      -5.5     10.568     11.709
REMARK  4 active torsions:
REMARK  status: ('A' for Active; 'I' for Inactive)
REMARK    1  A    between atoms: C_1  and  O_2 
REMARK    2  A    between atoms: O_2  and  C_3 
REMARK    3  A    between atoms: C_6  and  C_9 
REMARK    4  A    between atoms: C_18  and  O_21 
ROOT
ATOM      1  C   LIG d   1       9.674   7.608  -1.624  0.00  0.00     0.091 C 
ATOM      2  H   LIG d   1       8.739   7.624  -1.064  0.00  0.00     0.065 H 
ATOM      3  C   LIG d   1      10.858   7.565  -0.657  0.00  0.00     0.003 C 
ATOM      4  C   LIG d   1      10.986   8.891   0.051  0.00  0.00    -0.037 A 
ATOM      5  C   LIG d   1      11.750   8.960   1.205  0.00  0.00    -0.058 A 
ATOM      6  C   LIG d   1      11.897  10.160   1.872  0.00  0.00    -0.061 A 
ATOM      7  C   LIG d   1      11.279  11.298   1.386  0.00  0.00    -0.061 A 
ATOM      8  C   LIG d   1      10.515  11.229   0.237  0.00  0.00    -0.053 A 
ATOM      9  C   LIG d   1      10.367  10.025  -0.433  0.00  0.00     0.011 A 
ATOM     10  C   LIG d   1       9.522   9.989  -1.680  0.00  0.00     0.184 C 
ATOM     11  H   LIG d   1       9.757  10.855  -2.299  0.00  0.00     0.096 H 
ATOM     12  O   LIG d   1       9.780   8.795  -2.418  0.00  0.00    -0.339 OA
ATOM     13  H   LIG d   1      10.696   6.777   0.079  0.00  0.00     0.034 H 
ATOM     14  H   LIG d   1      11.773   7.361  -1.211  0.00  0.00     0.034 H 
ATOM     15  H   LIG d   1      12.233   8.072   1.584  0.00  0.00     0.062 H 
ATOM     16  H   LIG d   1      12.493  10.210   2.771  0.00  0.00     0.062 H 
ATOM     17  H   LIG d   1      11.393  12.239   1.903  0.00  0.00     0.062 H 
ATOM     18  H   LIG d   1      10.033  12.118  -0.142  0.00  0.00     0.062 H 
ENDROOT
BRANCH   1  19
ATOM     19  C   LIG d   1       9.708   6.397  -2.519  0.00  0.00    -0.018 A 
ATOM     20  C   LIG d   1      10.141   5.182  -2.021  0.00  0.00    -0.053 A 
ATOM     21  C   LIG d   1      10.167   4.067  -2.837  0.00  0.00    -0.020 A 
ATOM     22  H   LIG d   1      10.454   5.103  -0.990  0.00  0.00     0.062 H 
ATOM     23  C   LIG d   1       9.765   4.170  -4.161  0.00  0.00     0.120 A 
ATOM     24  H   LIG d   1      10.501   3.118  -2.446  0.00  0.00     0.065 H 
ATOM     25  C   LIG d   1       9.336   5.391  -4.661  0.00  0.00    -0.020 A 
ATOM     26  C   LIG d   1       9.312   6.503  -3.840  0.00  0.00    -0.053 A 
ATOM     27  H   LIG d   1       9.023   5.473  -5.690  0.00  0.00     0.065 H 
ATOM     28  H   LIG d   1       8.978   7.453  -4.228  0.00  0.00     0.062 H 
BRANCH  23  29
ATOM     29  O   LIG d   1       9.790   3.075  -4.966  0.00  0.00    -0.495 OA
BRANCH  29  30
ATOM     30  C   LIG d   1       8.542   2.420  -5.207  0.00  0.00     0.079 C 
ATOM     31  H   LIG d   1       7.969   2.378  -4.281  0.00  0.00     0.066 H 
ATOM     32  H   LIG d   1       7.980   2.975  -5.959  0.00  0.00     0.066 H 
ATOM     33  H   LIG d   1       8.728   1.408  -5.566  0.00  0.00     0.066 H 
ENDBRANCH  29  30
ENDBRANCH  23  29
ENDBRANCH   1  19
BRANCH  10  34
ATOM     34  O   LIG d   1       8.141  10.031  -1.318  0.00  0.00    -0.363 OA
ATOM     35  H   LIG d   1       7.961  10.530  -0.508  0.00  0.00     0.213 HD
ENDBRANCH  10  34
TORSDOF 4
ENDMDL
MODEL 7
REMARK VINA RESULT:      -5.3      4.540      6.393
REMARK  4 active torsions:
REMARK  status: ('A' for Active; 'I' for Inactive)
REMARK    1  A    between atoms: C_1  and  O_2 
REMARK    2  A    between atoms: O_2  and  C_3 
REMARK    3  A    between atoms: C_6  and  C_9 
REMARK    4  A    between atoms: C_18  and  O_21 
ROOT
ATOM      1  C   LIG d   1       4.739  -3.704  -5.417  0.00  0.00     0.091 C 
ATOM      2  H   LIG d   1       3.749  -3.845  -5.851  0.00  0.00     0.065 H 
ATOM      3  C   LIG d   1       4.609  -3.254  -3.962  0.00  0.00     0.003 C 
ATOM      4  C   LIG d   1       4.084  -1.842  -3.909  0.00  0.00    -0.037 A 
ATOM      5  C   LIG d   1       3.562  -1.367  -2.716  0.00  0.00    -0.058 A 
ATOM      6  C   LIG d   1       3.083  -0.075  -2.630  0.00  0.00    -0.061 A 
ATOM      7  C   LIG d   1       3.124   0.749  -3.740  0.00  0.00    -0.061 A 
ATOM      8  C   LIG d   1       3.642   0.276  -4.930  0.00  0.00    -0.053 A 
ATOM      9  C   LIG d   1       4.122  -1.021  -5.017  0.00  0.00     0.011 A 
ATOM     10  C   LIG d   1       4.675  -1.501  -6.334  0.00  0.00     0.184 C 
ATOM     11  H   LIG d   1       5.310  -0.725  -6.762  0.00  0.00     0.096 H 
ATOM     12  O   LIG d   1       5.442  -2.690  -6.144  0.00  0.00    -0.339 OA
ATOM     13  H   LIG d   1       3.918  -3.916  -3.438  0.00  0.00     0.034 H 
ATOM     14  H   LIG d   1       5.585  -3.296  -3.480  0.00  0.00     0.034 H 
ATOM     15  H   LIG d   1       3.531  -2.011  -1.849  0.00  0.00     0.062 H 
ATOM     16  H   LIG d   1       2.677   0.291  -1.699  0.00  0.00     0.062 H 
ATOM     17  H   LIG d   1       2.752   1.761  -3.676  0.00  0.00     0.062 H 
ATOM     18  H   LIG d   1       3.673   0.921  -5.795  0.00  0.00     0.062 H 
ENDROOT
BRANCH   1  19
ATOM     19  C   LIG d   1       5.509  -4.997  -5.481  0.00  0.00    -0.018 A 
ATOM     20  C   LIG d   1       6.891  -4.979  -5.471  0.00  0.00    -0.053 A 
ATOM     21  C   LIG d   1       7.600  -6.164  -5.523  0.00  0.00    -0.020 A 
ATOM     22  H   LIG d   1       7.418  -4.038  -5.416  0.00  0.00     0.062 H 
ATOM     23  C   LIG d   1       6.923  -7.373  -5.593  0.00  0.00     0.120 A 
ATOM     24  H   LIG d   1       8.679  -6.149  -5.510  0.00  0.00     0.065 H 
ATOM     25  C   LIG d   1       5.535  -7.389  -5.610  0.00  0.00    -0.020 A 
ATOM     26  C   LIG d   1       4.831  -6.201  -5.557  0.00  0.00    -0.053 A 
ATOM     27  H   LIG d   1       5.006  -8.328  -5.664  0.00  0.00     0.065 H 
ATOM     28  H   LIG d   1       3.752  -6.212  -5.569  0.00  0.00     0.062 H 
BRANCH  23  29
ATOM     29  O   LIG d   1       7.618  -8.540  -5.645  0.00  0.00    -0.495 OA
BRANCH  29  30
ATOM     30  C   LIG d   1       6.888  -9.740  -5.381  0.00  0.00     0.079 C 
ATOM     31  H   LIG d   1       7.017 -10.021  -4.335  0.00  0.00     0.066 H 
ATOM     32  H   LIG d   1       5.830  -9.576  -5.585  0.00  0.00     0.066 H 
ATOM     33  H   LIG d   1       7.262 -10.540  -6.020  0.00  0.00     0.066 H 
ENDBRANCH  29  30
ENDBRANCH  23  29
ENDBRANCH   1  19
BRANCH  10  34
ATOM     34  O   LIG d   1       3.596  -1.773  -7.229  0.00  0.00    -0.363 OA
ATOM     35  H   LIG d   1       2.822  -1.208  -7.097  0.00  0.00     0.213 HD
ENDBRANCH  10  34
TORSDOF 4
ENDMDL
MODEL 8
REMARK VINA RESULT:      -5.3      1.902      7.007
REMARK  4 active torsions:
REMARK  status: ('A' for Active; 'I' for Inactive)
REMARK    1  A    between atoms: C_1  and  O_2 
REMARK    2  A    between atoms: O_2  and  C_3 
REMARK    3  A    between atoms: C_6  and  C_9 
REMARK    4  A    between atoms: C_18  and  O_21 
ROOT
ATOM      1  C   LIG d   1       2.951  -0.283  -8.568  0.00  0.00     0.091 C 
ATOM      2  H   LIG d   1       2.278   0.535  -8.825  0.00  0.00     0.065 H 
ATOM      3  C   LIG d   1       4.225  -0.191  -9.408  0.00  0.00     0.003 C 
ATOM      4  C   LIG d   1       3.916  -0.534 -10.843  0.00  0.00    -0.037 A 
ATOM      5  C   LIG d   1       4.825  -0.177 -11.826  0.00  0.00    -0.058 A 
ATOM      6  C   LIG d   1       4.578  -0.485 -13.149  0.00  0.00    -0.061 A 
ATOM      7  C   LIG d   1       3.417  -1.152 -13.495  0.00  0.00    -0.061 A 
ATOM      8  C   LIG d   1       2.509  -1.506 -12.516  0.00  0.00    -0.053 A 
ATOM      9  C   LIG d   1       2.756  -1.196 -11.188  0.00  0.00     0.011 A 
ATOM     10  C   LIG d   1       1.739  -1.594 -10.151  0.00  0.00     0.184 C 
ATOM     11  H   LIG d   1       1.400  -2.611 -10.351  0.00  0.00     0.096 H 
ATOM     12  O   LIG d   1       2.314  -1.535  -8.846  0.00  0.00    -0.339 OA
ATOM     13  H   LIG d   1       4.621   0.824  -9.356  0.00  0.00     0.034 H 
ATOM     14  H   LIG d   1       4.966  -0.889  -9.020  0.00  0.00     0.034 H 
ATOM     15  H   LIG d   1       5.732   0.344 -11.555  0.00  0.00     0.062 H 
ATOM     16  H   LIG d   1       5.290  -0.205 -13.911  0.00  0.00     0.062 H 
ATOM     17  H   LIG d   1       3.222  -1.397 -14.528  0.00  0.00     0.062 H 
ATOM     18  H   LIG d   1       1.603  -2.027 -12.788  0.00  0.00     0.062 H 
ENDROOT
BRANCH   1  19
ATOM     19  C   LIG d   1       3.302  -0.208  -7.105  0.00  0.00    -0.018 A 
ATOM     20  C   LIG d   1       4.493  -0.744  -6.653  0.00  0.00    -0.053 A 
ATOM     21  C   LIG d   1       4.821  -0.672  -5.312  0.00  0.00    -0.020 A 
ATOM     22  H   LIG d   1       5.171  -1.215  -7.349  0.00  0.00     0.062 H 
ATOM     23  C   LIG d   1       3.950  -0.066  -4.419  0.00  0.00     0.120 A 
ATOM     24  H   LIG d   1       5.754  -1.086  -4.961  0.00  0.00     0.065 H 
ATOM     25  C   LIG d   1       2.751   0.466  -4.873  0.00  0.00    -0.020 A 
ATOM     26  C   LIG d   1       2.428   0.391  -6.214  0.00  0.00    -0.053 A 
ATOM     27  H   LIG d   1       2.072   0.937  -4.180  0.00  0.00     0.065 H 
ATOM     28  H   LIG d   1       1.497   0.805  -6.569  0.00  0.00     0.062 H 
BRANCH  23  29
ATOM     29  O   LIG d   1       4.270   0.006  -3.100  0.00  0.00    -0.495 OA
BRANCH  29  30
ATOM     30  C   LIG d   1       3.847   1.175  -2.394  0.00  0.00     0.079 C 
ATOM     31  H   LIG d   1       3.156   1.745  -3.015  0.00  0.00     0.066 H 
ATOM     32  H   LIG d   1       3.348   0.882  -1.470  0.00  0.00     0.066 H 
ATOM     33  H   LIG d   1       4.715   1.791  -2.158  0.00  0.00     0.066 H 
ENDBRANCH  29  30
ENDBRANCH  23  29
ENDBRANCH   1  19
BRANCH  10  34
ATOM     34  O   LIG d   1       0.622  -0.706 -10.217  0.00  0.00    -0.363 OA
ATOM     35  H   LIG d   1      -0.070  -0.987 -10.831  0.00  0.00     0.213 HD
ENDBRANCH  10  34
TORSDOF 4
ENDMDL
MODEL 9
REMARK VINA RESULT:      -5.2      9.161     11.672
REMARK  4 active torsions:
REMARK  status: ('A' for Active; 'I' for Inactive)
REMARK    1  A    between atoms: C_1  and  O_2 
REMARK    2  A    between atoms: O_2  and  C_3 
REMARK    3  A    between atoms: C_6  and  C_9 
REMARK    4  A    between atoms: C_18  and  O_21 
ROOT
ATOM      1  C   LIG d   1       9.866   5.186  -2.652  0.00  0.00     0.091 C 
ATOM      2  H   LIG d   1       8.790   5.026  -2.597  0.00  0.00     0.065 H 
ATOM      3  C   LIG d   1      10.206   6.000  -3.902  0.00  0.00     0.003 C 
ATOM      4  C   LIG d   1       9.993   5.157  -5.133  0.00  0.00    -0.037 A 
ATOM      5  C   LIG d   1       9.898   5.785  -6.365  0.00  0.00    -0.058 A 
ATOM      6  C   LIG d   1       9.713   5.041  -7.513  0.00  0.00    -0.061 A 
ATOM      7  C   LIG d   1       9.622   3.664  -7.434  0.00  0.00    -0.061 A 
ATOM      8  C   LIG d   1       9.714   3.037  -6.207  0.00  0.00    -0.053 A 
ATOM      9  C   LIG d   1       9.898   3.783  -5.054  0.00  0.00     0.011 A 
ATOM     10  C   LIG d   1       9.989   3.062  -3.733  0.00  0.00     0.184 C 
ATOM     11  H   LIG d   1      10.627   2.186  -3.844  0.00  0.00     0.096 H 
ATOM     12  O   LIG d   1      10.537   3.924  -2.737  0.00  0.00    -0.339 OA
ATOM     13  H   LIG d   1       9.561   6.878  -3.949  0.00  0.00     0.034 H 
ATOM     14  H   LIG d   1      11.247   6.318  -3.856  0.00  0.00     0.034 H 
ATOM     15  H   LIG d   1       9.970   6.861  -6.426  0.00  0.00     0.062 H 
ATOM     16  H   LIG d   1       9.639   5.535  -8.471  0.00  0.00     0.062 H 
ATOM     17  H   LIG d   1       9.480   3.079  -8.331  0.00  0.00     0.062 H 
ATOM     18  H   LIG d   1       9.642   1.961  -6.147  0.00  0.00     0.062 H 
ENDROOT
BRANCH   1  19
ATOM     19  C   LIG d   1      10.331   5.925  -1.425  0.00  0.00    -0.018 A 
ATOM     20  C   LIG d   1       9.983   7.251  -1.244  0.00  0.00    -0.053 A 
ATOM     21  C   LIG d   1      10.403   7.930  -0.116  0.00  0.00    -0.020 A 
ATOM     22  H   LIG d   1       9.377   7.756  -1.982  0.00  0.00     0.062 H 
ATOM     23  C   LIG d   1      11.181   7.282   0.832  0.00  0.00     0.120 A 
ATOM     24  H   LIG d   1      10.126   8.964   0.027  0.00  0.00     0.065 H 
ATOM     25  C   LIG d   1      11.534   5.953   0.646  0.00  0.00    -0.020 A 
ATOM     26  C   LIG d   1      11.112   5.279  -0.483  0.00  0.00    -0.053 A 
ATOM     27  H   LIG d   1      12.139   5.447   1.383  0.00  0.00     0.065 H 
ATOM     28  H   LIG d   1      11.386   4.245  -0.629  0.00  0.00     0.062 H 
BRANCH  23  29
ATOM     29  O   LIG d   1      11.595   7.947   1.943  0.00  0.00    -0.495 OA
BRANCH  29  30
ATOM     30  C   LIG d   1      11.931   9.328   1.783  0.00  0.00     0.079 C 
ATOM     31  H   LIG d   1      11.295   9.770   1.015  0.00  0.00     0.066 H 
ATOM     32  H   LIG d   1      11.777   9.851   2.727  0.00  0.00     0.066 H 
ATOM     33  H   LIG d   1      12.975   9.415   1.485  0.00  0.00     0.066 H 
ENDBRANCH  29  30
ENDBRANCH  23  29
ENDBRANCH   1  19
BRANCH  10  34
ATOM     34  O   LIG d   1       8.683   2.645  -3.331  0.00  0.00    -0.363 OA
ATOM     35  H   LIG d   1       8.565   2.590  -2.373  0.00  0.00     0.213 HD
ENDBRANCH  10  34
TORSDOF 4
ENDMDL
MODEL 10
REMARK VINA RESULT:      -5.2      4.428      7.120
REMARK  4 active torsions:
REMARK  status: ('A' for Active; 'I' for Inactive)
REMARK    1  A    between atoms: C_1  and  O_2 
REMARK    2  A    between atoms: O_2  and  C_3 
REMARK    3  A    between atoms: C_6  and  C_9 
REMARK    4  A    between atoms: C_18  and  O_21 
ROOT
ATOM      1  C   LIG d   1       5.040  -3.893  -5.320  0.00  0.00     0.091 C 
ATOM      2  H   LIG d   1       4.843  -3.746  -6.382  0.00  0.00     0.065 H 
ATOM      3  C   LIG d   1       6.536  -4.116  -5.096  0.00  0.00     0.003 C 
ATOM      4  C   LIG d   1       6.937  -5.465  -5.637  0.00  0.00    -0.037 A 
ATOM      5  C   LIG d   1       8.280  -5.723  -5.859  0.00  0.00    -0.058 A 
ATOM      6  C   LIG d   1       8.683  -6.951  -6.344  0.00  0.00    -0.061 A 
ATOM      7  C   LIG d   1       7.741  -7.928  -6.611  0.00  0.00    -0.061 A 
ATOM      8  C   LIG d   1       6.402  -7.671  -6.392  0.00  0.00    -0.053 A 
ATOM      9  C   LIG d   1       5.997  -6.438  -5.906  0.00  0.00     0.011 A 
ATOM     10  C   LIG d   1       4.526  -6.195  -5.685  0.00  0.00     0.184 C 
ATOM     11  H   LIG d   1       4.085  -7.068  -5.204  0.00  0.00     0.096 H 
ATOM     12  O   LIG d   1       4.334  -5.049  -4.856  0.00  0.00    -0.339 OA
ATOM     13  H   LIG d   1       7.099  -3.338  -5.611  0.00  0.00     0.034 H 
ATOM     14  H   LIG d   1       6.753  -4.075  -4.029  0.00  0.00     0.034 H 
ATOM     15  H   LIG d   1       9.015  -4.960  -5.650  0.00  0.00     0.062 H 
ATOM     16  H   LIG d   1       9.731  -7.148  -6.516  0.00  0.00     0.062 H 
ATOM     17  H   LIG d   1       8.053  -8.891  -6.988  0.00  0.00     0.062 H 
ATOM     18  H   LIG d   1       5.668  -8.435  -6.600  0.00  0.00     0.062 H 
ENDROOT
BRANCH   1  19
ATOM     19  C   LIG d   1       4.587  -2.681  -4.548  0.00  0.00    -0.018 A 
ATOM     20  C   LIG d   1       4.474  -1.459  -5.186  0.00  0.00    -0.053 A 
ATOM     21  C   LIG d   1       4.054  -0.347  -4.482  0.00  0.00    -0.020 A 
ATOM     22  H   LIG d   1       4.710  -1.375  -6.236  0.00  0.00     0.062 H 
ATOM     23  C   LIG d   1       3.751  -0.455  -3.133  0.00  0.00     0.120 A 
ATOM     24  H   LIG d   1       3.961   0.606  -4.982  0.00  0.00     0.065 H 
ATOM     25  C   LIG d   1       3.870  -1.681  -2.493  0.00  0.00    -0.020 A 
ATOM     26  C   LIG d   1       4.291  -2.790  -3.201  0.00  0.00    -0.053 A 
ATOM     27  H   LIG d   1       3.635  -1.768  -1.444  0.00  0.00     0.065 H 
ATOM     28  H   LIG d   1       4.384  -3.744  -2.705  0.00  0.00     0.062 H 
BRANCH  23  29
ATOM     29  O   LIG d   1       3.337   0.637  -2.439  0.00  0.00    -0.495 OA
BRANCH  29  30
ATOM     30  C   LIG d   1       4.334   1.361  -1.714  0.00  0.00     0.079 C 
ATOM     31  H   LIG d   1       5.306   1.214  -2.187  0.00  0.00     0.066 H 
ATOM     32  H   LIG d   1       4.086   2.422  -1.714  0.00  0.00     0.066 H 
ATOM     33  H   LIG d   1       4.372   0.996  -0.687  0.00  0.00     0.066 H 
ENDBRANCH  29  30
ENDBRANCH  23  29
ENDBRANCH   1  19
BRANCH  10  34
ATOM     34  O   LIG d   1       3.888  -5.979  -6.945  0.00  0.00    -0.363 OA
ATOM     35  H   LIG d   1       3.047  -5.505  -6.885  0.00  0.00     0.213 HD
ENDBRANCH  10  34
TORSDOF 4
ENDMDL
