MODEL 1
REMARK VINA RESULT:      -7.2      0.000      0.000
REMARK  6 active torsions:
REMARK  status: ('A' for Active; 'I' for Inactive)
REMARK    1  A    between atoms: C_1  and  C_2 
REMARK    2  A    between atoms: C_3  and  C_25 
REMARK    3  A    between atoms: C_9  and  O_13 
REMARK    4  A    between atoms: O_13  and  C_14 
REMARK    5  A    between atoms: C_14  and  C_16 
REMARK    6  A    between atoms: C_19  and  N_22 
ROOT
ATOM      1  C   LIG d   1      10.732   5.863  -0.983  0.00  0.00     0.114 A 
ATOM      2  C   LIG d   1      10.448   6.899  -1.814  0.00  0.00     0.067 A 
ATOM      3  C   LIG d   1      10.123   6.609  -3.221  0.00  0.00     0.200 A 
ATOM      4  O   LIG d   1       9.860   7.499  -4.012  0.00  0.00    -0.286 OA
ATOM      5  C   LIG d   1      10.130   5.192  -3.626  0.00  0.00     0.065 A 
ATOM      6  C   LIG d   1       9.835   4.812  -4.935  0.00  0.00    -0.044 A 
ATOM      7  C   LIG d   1       9.850   3.489  -5.276  0.00  0.00    -0.018 A 
ATOM      8  C   LIG d   1      10.159   2.521  -4.324  0.00  0.00     0.136 A 
ATOM      9  C   LIG d   1      10.455   2.883  -3.021  0.00  0.00     0.024 A 
ATOM     10  C   LIG d   1      10.443   4.223  -2.657  0.00  0.00     0.142 A 
ATOM     11  O   LIG d   1      10.721   4.591  -1.390  0.00  0.00    -0.459 OA
ATOM     12  H   LIG d   1       9.596   5.560  -5.676  0.00  0.00     0.063 H 
ATOM     13  H   LIG d   1       9.622   3.193  -6.290  0.00  0.00     0.065 H 
ATOM     14  H   LIG d   1      10.693   2.124  -2.290  0.00  0.00     0.069 H 
ENDROOT
BRANCH   8  15
ATOM     15  O   LIG d   1      10.170   1.209  -4.677  0.00  0.00    -0.422 OA
BRANCH  15  16
ATOM     16  C   LIG d   1       9.054   0.721  -5.251  0.00  0.00     0.344 C 
ATOM     17  O   LIG d   1       9.023   0.524  -6.450  0.00  0.00    -0.244 OA
BRANCH  16  18
ATOM     18  C   LIG d   1       7.866   0.426  -4.423  0.00  0.00     0.060 A 
ATOM     19  C   LIG d   1       7.141   1.467  -3.840  0.00  0.00    -0.041 A 
ATOM     20  C   LIG d   1       6.033   1.184  -3.070  0.00  0.00     0.016 A 
ATOM     21  H   LIG d   1       7.447   2.492  -3.993  0.00  0.00     0.063 H 
ATOM     22  C   LIG d   1       5.639  -0.128  -2.874  0.00  0.00     0.273 A 
ATOM     23  H   LIG d   1       5.470   1.988  -2.619  0.00  0.00     0.069 H 
ATOM     24  C   LIG d   1       6.353  -1.165  -3.448  0.00  0.00     0.016 A 
ATOM     25  C   LIG d   1       7.460  -0.896  -4.226  0.00  0.00    -0.041 A 
ATOM     26  H   LIG d   1       6.040  -2.186  -3.291  0.00  0.00     0.069 H 
ATOM     27  H   LIG d   1       8.014  -1.705  -4.679  0.00  0.00     0.063 H 
BRANCH  22  28
ATOM     28  N   LIG d   1       4.449  -0.424  -2.044  0.00  0.00     0.080 N 
ATOM     29  O   LIG d   1       3.613   0.439  -1.848  0.00  0.00     0.041 OA
ATOM     30  O   LIG d   1       4.306  -1.532  -1.558  0.00  0.00    -0.576 OA
ENDBRANCH  22  28
ENDBRANCH  16  18
ENDBRANCH  15  16
ENDBRANCH   8  15
BRANCH   1  31
ATOM     31  C   LIG d   1      11.064   6.159   0.457  0.00  0.00    -0.006 C 
ATOM     32  H   LIG d   1      10.207   5.916   1.085  0.00  0.00     0.031 H 
ATOM     33  H   LIG d   1      11.921   5.559   0.762  0.00  0.00     0.031 H 
ATOM     34  H   LIG d   1      11.304   7.217   0.564  0.00  0.00     0.031 H 
ENDBRANCH   1  31
BRANCH   2  35
ATOM     35  C   LIG d   1      10.466   8.296  -1.314  0.00  0.00    -0.011 A 
ATOM     36  C   LIG d   1      11.646   9.036  -1.351  0.00  0.00    -0.053 A 
ATOM     37  C   LIG d   1      11.657  10.336  -0.885  0.00  0.00    -0.047 A 
ATOM     38  H   LIG d   1      12.549   8.594  -1.744  0.00  0.00     0.062 H 
ATOM     39  C   LIG d   1      10.498  10.903  -0.382  0.00  0.00     0.018 A 
ATOM     40  H   LIG d   1      12.570  10.910  -0.913  0.00  0.00     0.063 H 
ATOM     41  C   LIG d   1       9.324  10.172  -0.344  0.00  0.00    -0.047 A 
ATOM     42 BR   LIG d   1      10.521  12.683   0.254  0.00  0.00    -0.050 Br
ATOM     43  C   LIG d   1       9.301   8.874  -0.812  0.00  0.00    -0.053 A 
ATOM     44  H   LIG d   1       8.423  10.620   0.049  0.00  0.00     0.063 H 
ATOM     45  H   LIG d   1       8.383   8.305  -0.785  0.00  0.00     0.062 H 
ENDBRANCH   2  35
TORSDOF 6
ENDMDL
MODEL 2
REMARK VINA RESULT:      -6.7      8.497     13.272
REMARK  6 active torsions:
REMARK  status: ('A' for Active; 'I' for Inactive)
REMARK    1  A    between atoms: C_1  and  C_2 
REMARK    2  A    between atoms: C_3  and  C_25 
REMARK    3  A    between atoms: C_9  and  O_13 
REMARK    4  A    between atoms: O_13  and  C_14 
REMARK    5  A    between atoms: C_14  and  C_16 
REMARK    6  A    between atoms: C_19  and  N_22 
ROOT
ATOM      1  C   LIG d   1       9.551  -9.343  -2.845  0.00  0.00     0.114 A 
ATOM      2  C   LIG d   1      10.159  -9.044  -1.668  0.00  0.00     0.067 A 
ATOM      3  C   LIG d   1      10.302  -7.629  -1.286  0.00  0.00     0.200 A 
ATOM      4  O   LIG d   1      10.839  -7.301  -0.242  0.00  0.00    -0.286 OA
ATOM      5  C   LIG d   1       9.764  -6.629  -2.225  0.00  0.00     0.065 A 
ATOM      6  C   LIG d   1       9.847  -5.263  -1.956  0.00  0.00    -0.044 A 
ATOM      7  C   LIG d   1       9.337  -4.363  -2.848  0.00  0.00    -0.018 A 
ATOM      8  C   LIG d   1       8.736  -4.804  -4.024  0.00  0.00     0.136 A 
ATOM      9  C   LIG d   1       8.645  -6.156  -4.306  0.00  0.00     0.024 A 
ATOM     10  C   LIG d   1       9.158  -7.084  -3.409  0.00  0.00     0.142 A 
ATOM     11  O   LIG d   1       9.072  -8.405  -3.666  0.00  0.00    -0.459 OA
ATOM     12  H   LIG d   1      10.314  -4.918  -1.045  0.00  0.00     0.063 H 
ATOM     13  H   LIG d   1       9.401  -3.305  -2.641  0.00  0.00     0.065 H 
ATOM     14  H   LIG d   1       8.177  -6.488  -5.221  0.00  0.00     0.069 H 
ENDROOT
BRANCH   8  15
ATOM     15  O   LIG d   1       8.232  -3.899  -4.903  0.00  0.00    -0.422 OA
BRANCH  15  16
ATOM     16  C   LIG d   1       6.892  -3.775  -4.953  0.00  0.00     0.344 C 
ATOM     17  O   LIG d   1       6.234  -4.551  -5.618  0.00  0.00    -0.244 OA
BRANCH  16  18
ATOM     18  C   LIG d   1       6.221  -2.695  -4.200  0.00  0.00     0.060 A 
ATOM     19  C   LIG d   1       6.931  -1.551  -3.833  0.00  0.00    -0.041 A 
ATOM     20  C   LIG d   1       6.298  -0.547  -3.131  0.00  0.00     0.016 A 
ATOM     21  H   LIG d   1       7.973  -1.452  -4.099  0.00  0.00     0.063 H 
ATOM     22  C   LIG d   1       4.963  -0.672  -2.790  0.00  0.00     0.273 A 
ATOM     23  H   LIG d   1       6.846   0.340  -2.847  0.00  0.00     0.069 H 
ATOM     24  C   LIG d   1       4.253  -1.803  -3.151  0.00  0.00     0.016 A 
ATOM     25  C   LIG d   1       4.872  -2.812  -3.858  0.00  0.00    -0.041 A 
ATOM     26  H   LIG d   1       3.211  -1.894  -2.881  0.00  0.00     0.069 H 
ATOM     27  H   LIG d   1       4.317  -3.693  -4.144  0.00  0.00     0.063 H 
BRANCH  22  28
ATOM     28  N   LIG d   1       4.290   0.410  -2.035  0.00  0.00     0.080 N 
ATOM     29  O   LIG d   1       3.103   0.624  -2.206  0.00  0.00     0.041 OA
ATOM     30  O   LIG d   1       4.923   1.085  -1.243  0.00  0.00    -0.576 OA
ENDBRANCH  22  28
ENDBRANCH  16  18
ENDBRANCH  15  16
ENDBRANCH   8  15
BRANCH   1  31
ATOM     31  C   LIG d   1       9.405 -10.791  -3.237  0.00  0.00    -0.006 C 
ATOM     32  H   LIG d   1      10.373 -11.287  -3.164  0.00  0.00     0.031 H 
ATOM     33  H   LIG d   1       8.696 -11.278  -2.568  0.00  0.00     0.031 H 
ATOM     34  H   LIG d   1       9.041 -10.855  -4.262  0.00  0.00     0.031 H 
ENDBRANCH   1  31
BRANCH   2  35
ATOM     35  C   LIG d   1      10.671 -10.121  -0.786  0.00  0.00    -0.011 A 
ATOM     36  C   LIG d   1       9.839 -10.690   0.177  0.00  0.00    -0.053 A 
ATOM     37  C   LIG d   1      10.320 -11.693   0.995  0.00  0.00    -0.047 A 
ATOM     38  H   LIG d   1       8.821 -10.347   0.282  0.00  0.00     0.062 H 
ATOM     39  C   LIG d   1      11.626 -12.133   0.860  0.00  0.00     0.018 A 
ATOM     40  H   LIG d   1       9.677 -12.134   1.741  0.00  0.00     0.063 H 
ATOM     41  C   LIG d   1      12.455 -11.571  -0.095  0.00  0.00    -0.047 A 
ATOM     42 BR   LIG d   1      12.278 -13.506   1.984  0.00  0.00    -0.050 Br
ATOM     43  C   LIG d   1      11.983 -10.571  -0.921  0.00  0.00    -0.053 A 
ATOM     44  H   LIG d   1      13.474 -11.918  -0.196  0.00  0.00     0.063 H 
ATOM     45  H   LIG d   1      12.630 -10.136  -1.668  0.00  0.00     0.062 H 
ENDBRANCH   2  35
TORSDOF 6
ENDMDL
MODEL 3
REMARK VINA RESULT:      -6.6      1.334      1.976
REMARK  6 active torsions:
REMARK  status: ('A' for Active; 'I' for Inactive)
REMARK    1  A    between atoms: C_1  and  C_2 
REMARK    2  A    between atoms: C_3  and  C_25 
REMARK    3  A    between atoms: C_9  and  O_13 
REMARK    4  A    between atoms: O_13  and  C_14 
REMARK    5  A    between atoms: C_14  and  C_16 
REMARK    6  A    between atoms: C_19  and  N_22 
ROOT
ATOM      1  C   LIG d   1      10.790   6.161  -0.625  0.00  0.00     0.114 A 
ATOM      2  C   LIG d   1      11.008   7.356  -1.234  0.00  0.00     0.067 A 
ATOM      3  C   LIG d   1      10.718   7.480  -2.673  0.00  0.00     0.200 A 
ATOM      4  O   LIG d   1      10.894   8.526  -3.272  0.00  0.00    -0.286 OA
ATOM      5  C   LIG d   1      10.205   6.277  -3.353  0.00  0.00     0.065 A 
ATOM      6  C   LIG d   1       9.898   6.290  -4.714  0.00  0.00    -0.044 A 
ATOM      7  C   LIG d   1       9.424   5.158  -5.312  0.00  0.00    -0.018 A 
ATOM      8  C   LIG d   1       9.245   3.992  -4.571  0.00  0.00     0.136 A 
ATOM      9  C   LIG d   1       9.545   3.964  -3.220  0.00  0.00     0.024 A 
ATOM     10  C   LIG d   1      10.028   5.106  -2.595  0.00  0.00     0.142 A 
ATOM     11  O   LIG d   1      10.318   5.097  -1.279  0.00  0.00    -0.459 OA
ATOM     12  H   LIG d   1      10.036   7.192  -5.292  0.00  0.00     0.063 H 
ATOM     13  H   LIG d   1       9.185   5.167  -6.366  0.00  0.00     0.065 H 
ATOM     14  H   LIG d   1       9.403   3.055  -2.653  0.00  0.00     0.069 H 
ENDROOT
BRANCH   8  15
ATOM     15  O   LIG d   1       8.772   2.874  -5.179  0.00  0.00    -0.422 OA
BRANCH  15  16
ATOM     16  C   LIG d   1       9.027   1.696  -4.578  0.00  0.00     0.344 C 
ATOM     17  O   LIG d   1      10.175   1.337  -4.407  0.00  0.00    -0.244 OA
BRANCH  16  18
ATOM     18  C   LIG d   1       7.910   0.840  -4.126  0.00  0.00     0.060 A 
ATOM     19  C   LIG d   1       7.946  -0.537  -4.355  0.00  0.00    -0.041 A 
ATOM     20  C   LIG d   1       6.901  -1.330  -3.931  0.00  0.00     0.016 A 
ATOM     21  H   LIG d   1       8.791  -0.980  -4.863  0.00  0.00     0.063 H 
ATOM     22  C   LIG d   1       5.819  -0.765  -3.280  0.00  0.00     0.273 A 
ATOM     23  H   LIG d   1       6.927  -2.396  -4.106  0.00  0.00     0.069 H 
ATOM     24  C   LIG d   1       5.777   0.599  -3.049  0.00  0.00     0.016 A 
ATOM     25  C   LIG d   1       6.818   1.403  -3.463  0.00  0.00    -0.041 A 
ATOM     26  H   LIG d   1       4.929   1.033  -2.541  0.00  0.00     0.069 H 
ATOM     27  H   LIG d   1       6.787   2.467  -3.279  0.00  0.00     0.063 H 
BRANCH  22  28
ATOM     28  N   LIG d   1       4.700  -1.623  -2.828  0.00  0.00     0.080 N 
ATOM     29  O   LIG d   1       4.344  -1.596  -1.663  0.00  0.00     0.041 OA
ATOM     30  O   LIG d   1       4.134  -2.354  -3.620  0.00  0.00    -0.576 OA
ENDBRANCH  22  28
ENDBRANCH  16  18
ENDBRANCH  15  16
ENDBRANCH   8  15
BRANCH   1  31
ATOM     31  C   LIG d   1      11.086   6.034   0.847  0.00  0.00    -0.006 C 
ATOM     32  H   LIG d   1      12.098   5.651   0.982  0.00  0.00     0.031 H 
ATOM     33  H   LIG d   1      11.001   7.012   1.320  0.00  0.00     0.031 H 
ATOM     34  H   LIG d   1      10.374   5.346   1.302  0.00  0.00     0.031 H 
ENDBRANCH   1  31
BRANCH   2  35
ATOM     35  C   LIG d   1      11.528   8.512  -0.465  0.00  0.00    -0.011 A 
ATOM     36  C   LIG d   1      10.644   9.420   0.116  0.00  0.00    -0.053 A 
ATOM     37  C   LIG d   1      11.134  10.494   0.831  0.00  0.00    -0.047 A 
ATOM     38  H   LIG d   1       9.579   9.282   0.008  0.00  0.00     0.062 H 
ATOM     39  C   LIG d   1      12.500  10.671   0.971  0.00  0.00     0.018 A 
ATOM     40  H   LIG d   1      10.450  11.198   1.282  0.00  0.00     0.063 H 
ATOM     41  C   LIG d   1      13.381   9.773   0.396  0.00  0.00    -0.047 A 
ATOM     42 BR   LIG d   1      13.163  12.145   1.952  0.00  0.00    -0.050 Br
ATOM     43  C   LIG d   1      12.902   8.693  -0.317  0.00  0.00    -0.053 A 
ATOM     44  H   LIG d   1      14.446   9.915   0.509  0.00  0.00     0.063 H 
ATOM     45  H   LIG d   1      13.591   7.990  -0.762  0.00  0.00     0.062 H 
ENDBRANCH   2  35
TORSDOF 6
ENDMDL
MODEL 4
REMARK VINA RESULT:      -6.5      1.182      2.309
REMARK  6 active torsions:
REMARK  status: ('A' for Active; 'I' for Inactive)
REMARK    1  A    between atoms: C_1  and  C_2 
REMARK    2  A    between atoms: C_3  and  C_25 
REMARK    3  A    between atoms: C_9  and  O_13 
REMARK    4  A    between atoms: O_13  and  C_14 
REMARK    5  A    between atoms: C_14  and  C_16 
REMARK    6  A    between atoms: C_19  and  N_22 
ROOT
ATOM      1  C   LIG d   1       9.824   7.285  -4.214  0.00  0.00     0.114 A 
ATOM      2  C   LIG d   1      10.197   7.223  -2.909  0.00  0.00     0.067 A 
ATOM      3  C   LIG d   1      10.348   5.901  -2.278  0.00  0.00     0.200 A 
ATOM      4  O   LIG d   1      10.679   5.785  -1.111  0.00  0.00    -0.286 OA
ATOM      5  C   LIG d   1      10.079   4.726  -3.126  0.00  0.00     0.065 A 
ATOM      6  C   LIG d   1      10.195   3.430  -2.625  0.00  0.00    -0.044 A 
ATOM      7  C   LIG d   1       9.939   2.363  -3.438  0.00  0.00    -0.018 A 
ATOM      8  C   LIG d   1       9.564   2.563  -4.764  0.00  0.00     0.136 A 
ATOM      9  C   LIG d   1       9.444   3.844  -5.276  0.00  0.00     0.024 A 
ATOM     10  C   LIG d   1       9.701   4.940  -4.463  0.00  0.00     0.142 A 
ATOM     11  O   LIG d   1       9.596   6.193  -4.949  0.00  0.00    -0.459 OA
ATOM     12  H   LIG d   1      10.485   3.270  -1.597  0.00  0.00     0.063 H 
ATOM     13  H   LIG d   1      10.029   1.358  -3.051  0.00  0.00     0.065 H 
ATOM     14  H   LIG d   1       9.152   3.990  -6.306  0.00  0.00     0.069 H 
ENDROOT
BRANCH   8  15
ATOM     15  O   LIG d   1       9.313   1.494  -5.562  0.00  0.00    -0.422 OA
BRANCH  15  16
ATOM     16  C   LIG d   1       8.036   1.300  -5.943  0.00  0.00     0.344 C 
ATOM     17  O   LIG d   1       7.619   1.821  -6.958  0.00  0.00    -0.244 OA
BRANCH  16  18
ATOM     18  C   LIG d   1       7.141   0.454  -5.126  0.00  0.00     0.060 A 
ATOM     19  C   LIG d   1       6.757   0.869  -3.849  0.00  0.00    -0.041 A 
ATOM     20  C   LIG d   1       5.922   0.075  -3.092  0.00  0.00     0.016 A 
ATOM     21  H   LIG d   1       7.113   1.811  -3.456  0.00  0.00     0.063 H 
ATOM     22  C   LIG d   1       5.465  -1.130  -3.595  0.00  0.00     0.273 A 
ATOM     23  H   LIG d   1       5.623   0.395  -2.105  0.00  0.00     0.069 H 
ATOM     24  C   LIG d   1       5.841  -1.548  -4.859  0.00  0.00     0.016 A 
ATOM     25  C   LIG d   1       6.672  -0.761  -5.629  0.00  0.00    -0.041 A 
ATOM     26  H   LIG d   1       5.481  -2.490  -5.245  0.00  0.00     0.069 H 
ATOM     27  H   LIG d   1       6.962  -1.084  -6.618  0.00  0.00     0.063 H 
BRANCH  22  28
ATOM     28  N   LIG d   1       4.569  -1.978  -2.776  0.00  0.00     0.080 N 
ATOM     29  O   LIG d   1       4.094  -2.996  -3.248  0.00  0.00     0.041 OA
ATOM     30  O   LIG d   1       4.307  -1.659  -1.630  0.00  0.00    -0.576 OA
ENDBRANCH  22  28
ENDBRANCH  16  18
ENDBRANCH  15  16
ENDBRANCH   8  15
BRANCH   1  31
ATOM     31  C   LIG d   1       9.670   8.637  -4.860  0.00  0.00    -0.006 C 
ATOM     32  H   LIG d   1      10.169   8.636  -5.830  0.00  0.00     0.031 H 
ATOM     33  H   LIG d   1       8.611   8.855  -4.998  0.00  0.00     0.031 H 
ATOM     34  H   LIG d   1      10.118   9.398  -4.222  0.00  0.00     0.031 H 
ENDBRANCH   1  31
BRANCH   2  35
ATOM     35  C   LIG d   1      10.445   8.464  -2.135  0.00  0.00    -0.011 A 
ATOM     36  C   LIG d   1       9.410   9.057  -1.414  0.00  0.00    -0.053 A 
ATOM     37  C   LIG d   1       9.648  10.211  -0.695  0.00  0.00    -0.047 A 
ATOM     38  H   LIG d   1       8.426   8.614  -1.418  0.00  0.00     0.062 H 
ATOM     39  C   LIG d   1      10.910  10.779  -0.688  0.00  0.00     0.018 A 
ATOM     40  H   LIG d   1       8.846  10.672  -0.136  0.00  0.00     0.063 H 
ATOM     41  C   LIG d   1      11.941  10.193  -1.402  0.00  0.00    -0.047 A 
ATOM     42 BR   LIG d   1      11.227  12.360   0.299  0.00  0.00    -0.050 Br
ATOM     43  C   LIG d   1      11.716   9.037  -2.121  0.00  0.00    -0.053 A 
ATOM     44  H   LIG d   1      12.925  10.640  -1.394  0.00  0.00     0.063 H 
ATOM     45  H   LIG d   1      12.523   8.578  -2.674  0.00  0.00     0.062 H 
ENDBRANCH   2  35
TORSDOF 6
ENDMDL
MODEL 5
REMARK VINA RESULT:      -6.4      9.636     12.723
REMARK  6 active torsions:
REMARK  status: ('A' for Active; 'I' for Inactive)
REMARK    1  A    between atoms: C_1  and  C_2 
REMARK    2  A    between atoms: C_3  and  C_25 
REMARK    3  A    between atoms: C_9  and  O_13 
REMARK    4  A    between atoms: O_13  and  C_14 
REMARK    5  A    between atoms: C_14  and  C_16 
REMARK    6  A    between atoms: C_19  and  N_22 
ROOT
ATOM      1  C   LIG d   1       6.491  -4.650  -7.485  0.00  0.00     0.114 A 
ATOM      2  C   LIG d   1       5.884  -4.982  -6.315  0.00  0.00     0.067 A 
ATOM      3  C   LIG d   1       5.107  -3.952  -5.605  0.00  0.00     0.200 A 
ATOM      4  O   LIG d   1       4.542  -4.192  -4.552  0.00  0.00    -0.286 OA
ATOM      5  C   LIG d   1       5.044  -2.619  -6.229  0.00  0.00     0.065 A 
ATOM      6  C   LIG d   1       4.333  -1.575  -5.638  0.00  0.00    -0.044 A 
ATOM      7  C   LIG d   1       4.295  -0.351  -6.243  0.00  0.00    -0.018 A 
ATOM      8  C   LIG d   1       4.963  -0.142  -7.447  0.00  0.00     0.136 A 
ATOM      9  C   LIG d   1       5.673  -1.168  -8.047  0.00  0.00     0.024 A 
ATOM     10  C   LIG d   1       5.722  -2.418  -7.444  0.00  0.00     0.142 A 
ATOM     11  O   LIG d   1       6.403  -3.430  -8.019  0.00  0.00    -0.459 OA
ATOM     12  H   LIG d   1       3.814  -1.733  -4.704  0.00  0.00     0.063 H 
ATOM     13  H   LIG d   1       3.744   0.458  -5.786  0.00  0.00     0.065 H 
ATOM     14  H   LIG d   1       6.188  -0.996  -8.980  0.00  0.00     0.069 H 
ENDROOT
BRANCH   8  15
ATOM     15  O   LIG d   1       4.917   1.079  -8.039  0.00  0.00    -0.422 OA
BRANCH  15  16
ATOM     16  C   LIG d   1       3.753   1.436  -8.615  0.00  0.00     0.344 C 
ATOM     17  O   LIG d   1       3.183   2.448  -8.258  0.00  0.00    -0.244 OA
BRANCH  16  18
ATOM     18  C   LIG d   1       3.168   0.597  -9.682  0.00  0.00     0.060 A 
ATOM     19  C   LIG d   1       1.974  -0.090  -9.458  0.00  0.00    -0.041 A 
ATOM     20  C   LIG d   1       1.434  -0.871 -10.457  0.00  0.00     0.016 A 
ATOM     21  H   LIG d   1       1.474  -0.009  -8.503  0.00  0.00     0.063 H 
ATOM     22  C   LIG d   1       2.072  -0.975 -11.680  0.00  0.00     0.273 A 
ATOM     23  H   LIG d   1       0.509  -1.403 -10.286  0.00  0.00     0.069 H 
ATOM     24  C   LIG d   1       3.257  -0.297 -11.910  0.00  0.00     0.016 A 
ATOM     25  C   LIG d   1       3.805   0.492 -10.920  0.00  0.00    -0.041 A 
ATOM     26  H   LIG d   1       3.750  -0.383 -12.866  0.00  0.00     0.069 H 
ATOM     27  H   LIG d   1       4.727   1.025 -11.101  0.00  0.00     0.063 H 
BRANCH  22  28
ATOM     28  N   LIG d   1       1.487  -1.816 -12.749  0.00  0.00     0.080 N 
ATOM     29  O   LIG d   1       0.277  -1.908 -12.858  0.00  0.00     0.041 OA
ATOM     30  O   LIG d   1       2.215  -2.416 -13.520  0.00  0.00    -0.576 OA
ENDBRANCH  22  28
ENDBRANCH  16  18
ENDBRANCH  15  16
ENDBRANCH   8  15
BRANCH   1  31
ATOM     31  C   LIG d   1       7.286  -5.703  -8.212  0.00  0.00    -0.006 C 
ATOM     32  H   LIG d   1       8.002  -6.157  -7.526  0.00  0.00     0.031 H 
ATOM     33  H   LIG d   1       6.612  -6.470  -8.592  0.00  0.00     0.031 H 
ATOM     34  H   LIG d   1       7.821  -5.245  -9.043  0.00  0.00     0.031 H 
ENDBRANCH   1  31
BRANCH   2  35
ATOM     35  C   LIG d   1       6.004  -6.353  -5.764  0.00  0.00    -0.011 A 
ATOM     36  C   LIG d   1       4.932  -7.240  -5.854  0.00  0.00    -0.053 A 
ATOM     37  C   LIG d   1       5.050  -8.515  -5.340  0.00  0.00    -0.047 A 
ATOM     38  H   LIG d   1       4.012  -6.929  -6.326  0.00  0.00     0.062 H 
ATOM     39  C   LIG d   1       6.229  -8.915  -4.735  0.00  0.00     0.018 A 
ATOM     40  H   LIG d   1       4.220  -9.202  -5.409  0.00  0.00     0.063 H 
ATOM     41  C   LIG d   1       7.297  -8.039  -4.644  0.00  0.00    -0.047 A 
ATOM     42 BR   LIG d   1       6.383 -10.664  -4.033  0.00  0.00    -0.050 Br
ATOM     43  C   LIG d   1       7.191  -6.763  -5.159  0.00  0.00    -0.053 A 
ATOM     44  H   LIG d   1       8.215  -8.356  -4.171  0.00  0.00     0.063 H 
ATOM     45  H   LIG d   1       8.027  -6.081  -5.090  0.00  0.00     0.062 H 
ENDBRANCH   2  35
TORSDOF 6
ENDMDL
MODEL 6
REMARK VINA RESULT:      -6.4      5.275      9.329
REMARK  6 active torsions:
REMARK  status: ('A' for Active; 'I' for Inactive)
REMARK    1  A    between atoms: C_1  and  C_2 
REMARK    2  A    between atoms: C_3  and  C_25 
REMARK    3  A    between atoms: C_9  and  O_13 
REMARK    4  A    between atoms: O_13  and  C_14 
REMARK    5  A    between atoms: C_14  and  C_16 
REMARK    6  A    between atoms: C_19  and  N_22 
ROOT
ATOM      1  C   LIG d   1       9.582   7.619  -6.860  0.00  0.00     0.114 A 
ATOM      2  C   LIG d   1       9.798   6.416  -7.453  0.00  0.00     0.067 A 
ATOM      3  C   LIG d   1       9.968   5.228  -6.600  0.00  0.00     0.200 A 
ATOM      4  O   LIG d   1      10.164   4.123  -7.075  0.00  0.00    -0.286 OA
ATOM      5  C   LIG d   1       9.888   5.439  -5.143  0.00  0.00     0.065 A 
ATOM      6  C   LIG d   1      10.035   4.379  -4.249  0.00  0.00    -0.044 A 
ATOM      7  C   LIG d   1       9.955   4.610  -2.905  0.00  0.00    -0.018 A 
ATOM      8  C   LIG d   1       9.729   5.897  -2.425  0.00  0.00     0.136 A 
ATOM      9  C   LIG d   1       9.582   6.960  -3.300  0.00  0.00     0.024 A 
ATOM     10  C   LIG d   1       9.660   6.742  -4.670  0.00  0.00     0.142 A 
ATOM     11  O   LIG d   1       9.512   7.765  -5.535  0.00  0.00    -0.459 OA
ATOM     12  H   LIG d   1      10.211   3.379  -4.617  0.00  0.00     0.063 H 
ATOM     13  H   LIG d   1      10.068   3.789  -2.211  0.00  0.00     0.065 H 
ATOM     14  H   LIG d   1       9.407   7.955  -2.918  0.00  0.00     0.069 H 
ENDROOT
BRANCH   8  15
ATOM     15  O   LIG d   1       9.651   6.113  -1.086  0.00  0.00    -0.422 OA
BRANCH  15  16
ATOM     16  C   LIG d   1      10.763   6.561  -0.473  0.00  0.00     0.344 C 
ATOM     17  O   LIG d   1      11.709   5.817  -0.307  0.00  0.00    -0.244 OA
BRANCH  16  18
ATOM     18  C   LIG d   1      10.832   7.960   0.001  0.00  0.00     0.060 A 
ATOM     19  C   LIG d   1       9.904   8.900  -0.451  0.00  0.00    -0.041 A 
ATOM     20  C   LIG d   1       9.975  10.203  -0.005  0.00  0.00     0.016 A 
ATOM     21  H   LIG d   1       9.132   8.607  -1.148  0.00  0.00     0.063 H 
ATOM     22  C   LIG d   1      10.962  10.579   0.888  0.00  0.00     0.273 A 
ATOM     23  H   LIG d   1       9.257  10.931  -0.353  0.00  0.00     0.069 H 
ATOM     24  C   LIG d   1      11.885   9.653   1.341  0.00  0.00     0.016 A 
ATOM     25  C   LIG d   1      11.822   8.345   0.906  0.00  0.00    -0.041 A 
ATOM     26  H   LIG d   1      12.653   9.953   2.038  0.00  0.00     0.069 H 
ATOM     27  H   LIG d   1      12.540   7.621   1.263  0.00  0.00     0.063 H 
BRANCH  22  28
ATOM     28  N   LIG d   1      11.032  11.980   1.363  0.00  0.00     0.080 N 
ATOM     29  O   LIG d   1      10.117  12.749   1.128  0.00  0.00     0.041 OA
ATOM     30  O   LIG d   1      12.005  12.364   1.988  0.00  0.00    -0.576 OA
ENDBRANCH  22  28
ENDBRANCH  16  18
ENDBRANCH  15  16
ENDBRANCH   8  15
BRANCH   1  31
ATOM     31  C   LIG d   1       9.408   8.835  -7.733  0.00  0.00    -0.006 C 
ATOM     32  H   LIG d   1       8.372   8.897  -8.069  0.00  0.00     0.031 H 
ATOM     33  H   LIG d   1       9.660   9.729  -7.164  0.00  0.00     0.031 H 
ATOM     34  H   LIG d   1      10.066   8.758  -8.599  0.00  0.00     0.031 H 
ENDBRANCH   1  31
BRANCH   2  35
ATOM     35  C   LIG d   1       9.862   6.301  -8.930  0.00  0.00    -0.011 A 
ATOM     36  C   LIG d   1      11.088   6.401  -9.586  0.00  0.00    -0.053 A 
ATOM     37  C   LIG d   1      11.142   6.293 -10.962  0.00  0.00    -0.047 A 
ATOM     38  H   LIG d   1      11.993   6.561  -9.020  0.00  0.00     0.062 H 
ATOM     39  C   LIG d   1       9.982   6.087 -11.689  0.00  0.00     0.018 A 
ATOM     40  H   LIG d   1      12.091   6.370 -11.471  0.00  0.00     0.063 H 
ATOM     41  C   LIG d   1       8.763   5.986 -11.041  0.00  0.00    -0.047 A 
ATOM     42 BR   LIG d   1      10.064   5.940 -13.572  0.00  0.00    -0.050 Br
ATOM     43  C   LIG d   1       8.698   6.088  -9.667  0.00  0.00    -0.053 A 
ATOM     44  H   LIG d   1       7.861   5.825 -11.614  0.00  0.00     0.063 H 
ATOM     45  H   LIG d   1       7.746   6.006  -9.163  0.00  0.00     0.062 H 
ENDBRANCH   2  35
TORSDOF 6
ENDMDL
MODEL 7
REMARK VINA RESULT:      -6.3     12.917     15.427
REMARK  6 active torsions:
REMARK  status: ('A' for Active; 'I' for Inactive)
REMARK    1  A    between atoms: C_1  and  C_2 
REMARK    2  A    between atoms: C_3  and  C_25 
REMARK    3  A    between atoms: C_9  and  O_13 
REMARK    4  A    between atoms: O_13  and  C_14 
REMARK    5  A    between atoms: C_14  and  C_16 
REMARK    6  A    between atoms: C_19  and  N_22 
ROOT
ATOM      1  C   LIG d   1       7.130  -7.935  -4.778  0.00  0.00     0.114 A 
ATOM      2  C   LIG d   1       5.820  -8.157  -5.061  0.00  0.00     0.067 A 
ATOM      3  C   LIG d   1       5.094  -9.181  -4.292  0.00  0.00     0.200 A 
ATOM      4  O   LIG d   1       3.918  -9.423  -4.503  0.00  0.00    -0.286 OA
ATOM      5  C   LIG d   1       5.857  -9.899  -3.256  0.00  0.00     0.065 A 
ATOM      6  C   LIG d   1       5.261 -10.887  -2.472  0.00  0.00    -0.044 A 
ATOM      7  C   LIG d   1       5.998 -11.533  -1.519  0.00  0.00    -0.018 A 
ATOM      8  C   LIG d   1       7.339 -11.209  -1.329  0.00  0.00     0.136 A 
ATOM      9  C   LIG d   1       7.944 -10.231  -2.099  0.00  0.00     0.024 A 
ATOM     10  C   LIG d   1       7.210  -9.565  -3.072  0.00  0.00     0.142 A 
ATOM     11  O   LIG d   1       7.783  -8.605  -3.825  0.00  0.00    -0.459 OA
ATOM     12  H   LIG d   1       4.222 -11.141  -2.617  0.00  0.00     0.063 H 
ATOM     13  H   LIG d   1       5.537 -12.298  -0.911  0.00  0.00     0.065 H 
ATOM     14  H   LIG d   1       8.985  -9.987  -1.943  0.00  0.00     0.069 H 
ENDROOT
BRANCH   8  15
ATOM     15  O   LIG d   1       8.059 -11.858  -0.378  0.00  0.00    -0.422 OA
BRANCH  15  16
ATOM     16  C   LIG d   1       9.399 -11.745  -0.442  0.00  0.00     0.344 C 
ATOM     17  O   LIG d   1      10.007 -12.238  -1.372  0.00  0.00    -0.244 OA
BRANCH  16  18
ATOM     18  C   LIG d   1      10.132 -11.022   0.619  0.00  0.00     0.060 A 
ATOM     19  C   LIG d   1      10.371  -9.652   0.497  0.00  0.00    -0.041 A 
ATOM     20  C   LIG d   1      11.055  -8.984   1.491  0.00  0.00     0.016 A 
ATOM     21  H   LIG d   1      10.020  -9.117  -0.373  0.00  0.00     0.063 H 
ATOM     22  C   LIG d   1      11.504  -9.668   2.606  0.00  0.00     0.273 A 
ATOM     23  H   LIG d   1      11.239  -7.924   1.399  0.00  0.00     0.069 H 
ATOM     24  C   LIG d   1      11.271 -11.026   2.733  0.00  0.00     0.016 A 
ATOM     25  C   LIG d   1      10.584 -11.706   1.749  0.00  0.00    -0.041 A 
ATOM     26  H   LIG d   1      11.625 -11.554   3.606  0.00  0.00     0.069 H 
ATOM     27  H   LIG d   1      10.397 -12.765   1.851  0.00  0.00     0.063 H 
BRANCH  22  28
ATOM     28  N   LIG d   1      12.239  -8.945   3.669  0.00  0.00     0.080 N 
ATOM     29  O   LIG d   1      11.726  -7.986   4.218  0.00  0.00     0.041 OA
ATOM     30  O   LIG d   1      13.355  -9.308   3.994  0.00  0.00    -0.576 OA
ENDBRANCH  22  28
ENDBRANCH  16  18
ENDBRANCH  15  16
ENDBRANCH   8  15
BRANCH   1  31
ATOM     31  C   LIG d   1       7.874  -6.887  -5.564  0.00  0.00    -0.006 C 
ATOM     32  H   LIG d   1       7.233  -6.016  -5.706  0.00  0.00     0.031 H 
ATOM     33  H   LIG d   1       8.771  -6.593  -5.020  0.00  0.00     0.031 H 
ATOM     34  H   LIG d   1       8.154  -7.292  -6.536  0.00  0.00     0.031 H 
ENDBRANCH   1  31
BRANCH   2  35
ATOM     35  C   LIG d   1       5.136  -7.383  -6.125  0.00  0.00    -0.011 A 
ATOM     36  C   LIG d   1       4.612  -6.122  -5.845  0.00  0.00    -0.053 A 
ATOM     37  C   LIG d   1       3.976  -5.406  -6.840  0.00  0.00    -0.047 A 
ATOM     38  H   LIG d   1       4.704  -5.707  -4.853  0.00  0.00     0.062 H 
ATOM     39  C   LIG d   1       3.858  -5.938  -8.112  0.00  0.00     0.018 A 
ATOM     40  H   LIG d   1       3.570  -4.429  -6.624  0.00  0.00     0.063 H 
ATOM     41  C   LIG d   1       4.378  -7.189  -8.395  0.00  0.00    -0.047 A 
ATOM     42 BR   LIG d   1       2.986  -4.951  -9.469  0.00  0.00    -0.050 Br
ATOM     43  C   LIG d   1       5.019  -7.911  -7.410  0.00  0.00    -0.053 A 
ATOM     44  H   LIG d   1       4.283  -7.599  -9.390  0.00  0.00     0.063 H 
ATOM     45  H   LIG d   1       5.427  -8.886  -7.633  0.00  0.00     0.062 H 
ENDBRANCH   2  35
TORSDOF 6
ENDMDL
MODEL 8
REMARK VINA RESULT:      -6.2      9.734     12.822
REMARK  6 active torsions:
REMARK  status: ('A' for Active; 'I' for Inactive)
REMARK    1  A    between atoms: C_1  and  C_2 
REMARK    2  A    between atoms: C_3  and  C_25 
REMARK    3  A    between atoms: C_9  and  O_13 
REMARK    4  A    between atoms: O_13  and  C_14 
REMARK    5  A    between atoms: C_14  and  C_16 
REMARK    6  A    between atoms: C_19  and  N_22 
ROOT
ATOM      1  C   LIG d   1       2.898   0.509  -8.770  0.00  0.00     0.114 A 
ATOM      2  C   LIG d   1       3.257  -0.515  -7.951  0.00  0.00     0.067 A 
ATOM      3  C   LIG d   1       3.314  -1.878  -8.506  0.00  0.00     0.200 A 
ATOM      4  O   LIG d   1       3.629  -2.834  -7.820  0.00  0.00    -0.286 OA
ATOM      5  C   LIG d   1       2.972  -2.029  -9.932  0.00  0.00     0.065 A 
ATOM      6  C   LIG d   1       2.997  -3.277 -10.554  0.00  0.00    -0.044 A 
ATOM      7  C   LIG d   1       2.675  -3.382 -11.877  0.00  0.00    -0.018 A 
ATOM      8  C   LIG d   1       2.322  -2.249 -12.607  0.00  0.00     0.136 A 
ATOM      9  C   LIG d   1       2.293  -1.003 -12.004  0.00  0.00     0.024 A 
ATOM     10  C   LIG d   1       2.618  -0.879 -10.659  0.00  0.00     0.142 A 
ATOM     11  O   LIG d   1       2.601   0.328 -10.059  0.00  0.00    -0.459 OA
ATOM     12  H   LIG d   1       3.269  -4.158  -9.992  0.00  0.00     0.063 H 
ATOM     13  H   LIG d   1       2.694  -4.348 -12.360  0.00  0.00     0.065 H 
ATOM     14  H   LIG d   1       2.018  -0.131 -12.578  0.00  0.00     0.069 H 
ENDROOT
BRANCH   8  15
ATOM     15  O   LIG d   1       2.005  -2.367 -13.922  0.00  0.00    -0.422 OA
BRANCH  15  16
ATOM     16  C   LIG d   1       1.043  -3.252 -14.243  0.00  0.00     0.344 C 
ATOM     17  O   LIG d   1       1.316  -4.236 -14.902  0.00  0.00    -0.244 OA
BRANCH  16  18
ATOM     18  C   LIG d   1      -0.347  -3.028 -13.794  0.00  0.00     0.060 A 
ATOM     19  C   LIG d   1      -1.016  -4.012 -13.065  0.00  0.00    -0.041 A 
ATOM     20  C   LIG d   1      -2.313  -3.795 -12.649  0.00  0.00     0.016 A 
ATOM     21  H   LIG d   1      -0.519  -4.941 -12.826  0.00  0.00     0.063 H 
ATOM     22  C   LIG d   1      -2.951  -2.606 -12.952  0.00  0.00     0.273 A 
ATOM     23  H   LIG d   1      -2.832  -4.556 -12.083  0.00  0.00     0.069 H 
ATOM     24  C   LIG d   1      -2.295  -1.626 -13.675  0.00  0.00     0.016 A 
ATOM     25  C   LIG d   1      -0.995  -1.827 -14.093  0.00  0.00    -0.041 A 
ATOM     26  H   LIG d   1      -2.799  -0.700 -13.909  0.00  0.00     0.069 H 
ATOM     27  H   LIG d   1      -0.481  -1.060 -14.653  0.00  0.00     0.063 H 
BRANCH  22  28
ATOM     28  N   LIG d   1      -4.344  -2.381 -12.504  0.00  0.00     0.080 N 
ATOM     29  O   LIG d   1      -4.733  -2.868 -11.457  0.00  0.00     0.041 OA
ATOM     30  O   LIG d   1      -5.101  -1.708 -13.181  0.00  0.00    -0.576 OA
ENDBRANCH  22  28
ENDBRANCH  16  18
ENDBRANCH  15  16
ENDBRANCH   8  15
BRANCH   1  31
ATOM     31  C   LIG d   1       2.839   1.903  -8.202  0.00  0.00    -0.006 C 
ATOM     32  H   LIG d   1       2.053   1.956  -7.448  0.00  0.00     0.031 H 
ATOM     33  H   LIG d   1       3.797   2.150  -7.745  0.00  0.00     0.031 H 
ATOM     34  H   LIG d   1       2.624   2.612  -9.001  0.00  0.00     0.031 H 
ENDBRANCH   1  31
BRANCH   2  35
ATOM     35  C   LIG d   1       3.584  -0.264  -6.527  0.00  0.00    -0.011 A 
ATOM     36  C   LIG d   1       2.585   0.134  -5.640  0.00  0.00    -0.053 A 
ATOM     37  C   LIG d   1       2.895   0.366  -4.314  0.00  0.00    -0.047 A 
ATOM     38  H   LIG d   1       1.572   0.262  -5.989  0.00  0.00     0.062 H 
ATOM     39  C   LIG d   1       4.195   0.202  -3.866  0.00  0.00     0.018 A 
ATOM     40  H   LIG d   1       2.122   0.675  -3.627  0.00  0.00     0.063 H 
ATOM     41  C   LIG d   1       5.189  -0.195  -4.742  0.00  0.00    -0.047 A 
ATOM     42 BR   LIG d   1       4.611   0.520  -2.049  0.00  0.00    -0.050 Br
ATOM     43  C   LIG d   1       4.889  -0.433  -6.068  0.00  0.00    -0.053 A 
ATOM     44  H   LIG d   1       6.202  -0.321  -4.387  0.00  0.00     0.063 H 
ATOM     45  H   LIG d   1       5.666  -0.746  -6.750  0.00  0.00     0.062 H 
ENDBRANCH   2  35
TORSDOF 6
ENDMDL
MODEL 9
REMARK VINA RESULT:      -6.2      8.776     12.207
REMARK  6 active torsions:
REMARK  status: ('A' for Active; 'I' for Inactive)
REMARK    1  A    between atoms: C_1  and  C_2 
REMARK    2  A    between atoms: C_3  and  C_25 
REMARK    3  A    between atoms: C_9  and  O_13 
REMARK    4  A    between atoms: O_13  and  C_14 
REMARK    5  A    between atoms: C_14  and  C_16 
REMARK    6  A    between atoms: C_19  and  N_22 
ROOT
ATOM      1  C   LIG d   1       7.045  -4.345  -4.861  0.00  0.00     0.114 A 
ATOM      2  C   LIG d   1       5.728  -4.039  -4.992  0.00  0.00     0.067 A 
ATOM      3  C   LIG d   1       4.838  -5.010  -5.651  0.00  0.00     0.200 A 
ATOM      4  O   LIG d   1       3.649  -4.790  -5.796  0.00  0.00    -0.286 OA
ATOM      5  C   LIG d   1       5.456  -6.261  -6.125  0.00  0.00     0.065 A 
ATOM      6  C   LIG d   1       4.701  -7.247  -6.761  0.00  0.00    -0.044 A 
ATOM      7  C   LIG d   1       5.305  -8.395  -7.187  0.00  0.00    -0.018 A 
ATOM      8  C   LIG d   1       6.670  -8.585  -6.991  0.00  0.00     0.136 A 
ATOM      9  C   LIG d   1       7.434  -7.617  -6.362  0.00  0.00     0.024 A 
ATOM     10  C   LIG d   1       6.835  -6.444  -5.921  0.00  0.00     0.142 A 
ATOM     11  O   LIG d   1       7.563  -5.494  -5.301  0.00  0.00    -0.459 OA
ATOM     12  H   LIG d   1       3.642  -7.102  -6.915  0.00  0.00     0.063 H 
ATOM     13  H   LIG d   1       4.721  -9.159  -7.679  0.00  0.00     0.065 H 
ATOM     14  H   LIG d   1       8.492  -7.774  -6.214  0.00  0.00     0.069 H 
ENDROOT
BRANCH   8  15
ATOM     15  O   LIG d   1       7.259  -9.732  -7.419  0.00  0.00    -0.422 OA
BRANCH  15  16
ATOM     16  C   LIG d   1       6.856 -10.879  -6.841  0.00  0.00     0.344 C 
ATOM     17  O   LIG d   1       6.457 -11.799  -7.527  0.00  0.00    -0.244 OA
BRANCH  16  18
ATOM     18  C   LIG d   1       6.898 -11.020  -5.370  0.00  0.00     0.060 A 
ATOM     19  C   LIG d   1       8.123 -11.007  -4.699  0.00  0.00    -0.041 A 
ATOM     20  C   LIG d   1       8.155 -11.138  -3.327  0.00  0.00     0.016 A 
ATOM     21  H   LIG d   1       9.043 -10.893  -5.254  0.00  0.00     0.063 H 
ATOM     22  C   LIG d   1       6.978 -11.282  -2.615  0.00  0.00     0.273 A 
ATOM     23  H   LIG d   1       9.101 -11.127  -2.806  0.00  0.00     0.069 H 
ATOM     24  C   LIG d   1       5.760 -11.296  -3.272  0.00  0.00     0.016 A 
ATOM     25  C   LIG d   1       5.714 -11.161  -4.644  0.00  0.00    -0.041 A 
ATOM     26  H   LIG d   1       4.845 -11.410  -2.711  0.00  0.00     0.069 H 
ATOM     27  H   LIG d   1       4.763 -11.166  -5.157  0.00  0.00     0.063 H 
BRANCH  22  28
ATOM     28  N   LIG d   1       7.019 -11.424  -1.141  0.00  0.00     0.080 N 
ATOM     29  O   LIG d   1       6.104 -10.993  -0.462  0.00  0.00     0.041 OA
ATOM     30  O   LIG d   1       7.968 -11.971  -0.608  0.00  0.00    -0.576 OA
ENDBRANCH  22  28
ENDBRANCH  16  18
ENDBRANCH  15  16
ENDBRANCH   8  15
BRANCH   1  31
ATOM     31  C   LIG d   1       7.956  -3.351  -4.187  0.00  0.00    -0.006 C 
ATOM     32  H   LIG d   1       8.968  -3.755  -4.146  0.00  0.00     0.031 H 
ATOM     33  H   LIG d   1       7.959  -2.420  -4.752  0.00  0.00     0.031 H 
ATOM     34  H   LIG d   1       7.600  -3.161  -3.175  0.00  0.00     0.031 H 
ENDBRANCH   1  31
BRANCH   2  35
ATOM     35  C   LIG d   1       5.197  -2.752  -4.482  0.00  0.00    -0.011 A 
ATOM     36  C   LIG d   1       5.305  -1.596  -5.253  0.00  0.00    -0.053 A 
ATOM     37  C   LIG d   1       4.809  -0.400  -4.774  0.00  0.00    -0.047 A 
ATOM     38  H   LIG d   1       5.777  -1.636  -6.223  0.00  0.00     0.062 H 
ATOM     39  C   LIG d   1       4.203  -0.348  -3.530  0.00  0.00     0.018 A 
ATOM     40  H   LIG d   1       4.893   0.496  -5.371  0.00  0.00     0.063 H 
ATOM     41  C   LIG d   1       4.092  -1.493  -2.761  0.00  0.00    -0.047 A 
ATOM     42 BR   LIG d   1       3.525   1.293  -2.880  0.00  0.00    -0.050 Br
ATOM     43  C   LIG d   1       4.581  -2.694  -3.233  0.00  0.00    -0.053 A 
ATOM     44  H   LIG d   1       3.618  -1.447  -1.791  0.00  0.00     0.063 H 
ATOM     45  H   LIG d   1       4.490  -3.588  -2.633  0.00  0.00     0.062 H 
ENDBRANCH   2  35
TORSDOF 6
ENDMDL
MODEL 10
REMARK VINA RESULT:      -6.1      8.136     13.023
REMARK  6 active torsions:
REMARK  status: ('A' for Active; 'I' for Inactive)
REMARK    1  A    between atoms: C_1  and  C_2 
REMARK    2  A    between atoms: C_3  and  C_25 
REMARK    3  A    between atoms: C_9  and  O_13 
REMARK    4  A    between atoms: O_13  and  C_14 
REMARK    5  A    between atoms: C_14  and  C_16 
REMARK    6  A    between atoms: C_19  and  N_22 
ROOT
ATOM      1  C   LIG d   1      10.357  -7.710  -1.326  0.00  0.00     0.114 A 
ATOM      2  C   LIG d   1       9.633  -8.602  -2.052  0.00  0.00     0.067 A 
ATOM      3  C   LIG d   1       8.921  -8.125  -3.250  0.00  0.00     0.200 A 
ATOM      4  O   LIG d   1       8.256  -8.879  -3.939  0.00  0.00    -0.286 OA
ATOM      5  C   LIG d   1       9.051  -6.694  -3.575  0.00  0.00     0.065 A 
ATOM      6  C   LIG d   1       8.417  -6.143  -4.689  0.00  0.00    -0.044 A 
ATOM      7  C   LIG d   1       8.559  -4.812  -4.961  0.00  0.00    -0.018 A 
ATOM      8  C   LIG d   1       9.333  -4.004  -4.132  0.00  0.00     0.136 A 
ATOM      9  C   LIG d   1       9.969  -4.535  -3.023  0.00  0.00     0.024 A 
ATOM     10  C   LIG d   1       9.835  -5.887  -2.732  0.00  0.00     0.142 A 
ATOM     11  O   LIG d   1      10.453  -6.421  -1.660  0.00  0.00    -0.459 OA
ATOM     12  H   LIG d   1       7.816  -6.767  -5.333  0.00  0.00     0.063 H 
ATOM     13  H   LIG d   1       8.069  -4.385  -5.824  0.00  0.00     0.065 H 
ATOM     14  H   LIG d   1      10.567  -3.901  -2.387  0.00  0.00     0.069 H 
ENDROOT
BRANCH   8  15
ATOM     15  O   LIG d   1       9.468  -2.683  -4.415  0.00  0.00    -0.422 OA
BRANCH  15  16
ATOM     16  C   LIG d   1       8.437  -2.083  -5.041  0.00  0.00     0.344 C 
ATOM     17  O   LIG d   1       8.356  -2.120  -6.252  0.00  0.00    -0.244 OA
BRANCH  16  18
ATOM     18  C   LIG d   1       7.404  -1.378  -4.253  0.00  0.00     0.060 A 
ATOM     19  C   LIG d   1       7.424   0.015  -4.157  0.00  0.00    -0.041 A 
ATOM     20  C   LIG d   1       6.457   0.666  -3.421  0.00  0.00     0.016 A 
ATOM     21  H   LIG d   1       8.195   0.581  -4.660  0.00  0.00     0.063 H 
ATOM     22  C   LIG d   1       5.469  -0.057  -2.778  0.00  0.00     0.273 A 
ATOM     23  H   LIG d   1       6.470   1.744  -3.347  0.00  0.00     0.069 H 
ATOM     24  C   LIG d   1       5.442  -1.437  -2.868  0.00  0.00     0.016 A 
ATOM     25  C   LIG d   1       6.400  -2.101  -3.606  0.00  0.00    -0.041 A 
ATOM     26  H   LIG d   1       4.668  -1.996  -2.364  0.00  0.00     0.069 H 
ATOM     27  H   LIG d   1       6.377  -3.178  -3.680  0.00  0.00     0.063 H 
BRANCH  22  28
ATOM     28  N   LIG d   1       4.434   0.649  -1.988  0.00  0.00     0.080 N 
ATOM     29  O   LIG d   1       4.763   1.434  -1.117  0.00  0.00     0.041 OA
ATOM     30  O   LIG d   1       3.254   0.445  -2.210  0.00  0.00    -0.576 OA
ENDBRANCH  22  28
ENDBRANCH  16  18
ENDBRANCH  15  16
ENDBRANCH   8  15
BRANCH   1  31
ATOM     31  C   LIG d   1      11.086  -8.197  -0.100  0.00  0.00    -0.006 C 
ATOM     32  H   LIG d   1      12.137  -8.358  -0.343  0.00  0.00     0.031 H 
ATOM     33  H   LIG d   1      11.005  -7.452   0.690  0.00  0.00     0.031 H 
ATOM     34  H   LIG d   1      10.644  -9.135   0.236  0.00  0.00     0.031 H 
ENDBRANCH   1  31
BRANCH   2  35
ATOM     35  C   LIG d   1       9.561 -10.026  -1.646  0.00  0.00    -0.011 A 
ATOM     36  C   LIG d   1       8.545 -10.460  -0.795  0.00  0.00    -0.053 A 
ATOM     37  C   LIG d   1       8.482 -11.787  -0.421  0.00  0.00    -0.047 A 
ATOM     38  H   LIG d   1       7.810  -9.759  -0.431  0.00  0.00     0.062 H 
ATOM     39  C   LIG d   1       9.425 -12.687  -0.888  0.00  0.00     0.018 A 
ATOM     40  H   LIG d   1       7.696 -12.124   0.238  0.00  0.00     0.063 H 
ATOM     41  C   LIG d   1      10.435 -12.261  -1.734  0.00  0.00    -0.047 A 
ATOM     42 BR   LIG d   1       9.333 -14.503  -0.371  0.00  0.00    -0.050 Br
ATOM     43  C   LIG d   1      10.504 -10.937  -2.118  0.00  0.00    -0.053 A 
ATOM     44  H   LIG d   1      11.168 -12.967  -2.095  0.00  0.00     0.063 H 
ATOM     45  H   LIG d   1      11.291 -10.607  -2.781  0.00  0.00     0.062 H 
ENDBRANCH   2  35
TORSDOF 6
ENDMDL
