MODEL 1
REMARK VINA RESULT:      -6.6      0.000      0.000
REMARK  3 active torsions:
REMARK  status: ('A' for Active; 'I' for Inactive)
REMARK    1  A    between atoms: C_1  and  C_2 
REMARK    2  A    between atoms: C_17  and  C_21 
REMARK    3  A    between atoms: C_18  and  C_20 
ROOT
ATOM      1  C   LIG d   1       3.084  -0.226  -6.954  0.00  0.00    -0.036 A 
ATOM      2  C   LIG d   1       2.500  -0.102  -8.182  0.00  0.00    -0.015 A 
ATOM      3  C   LIG d   1       2.999  -0.808  -9.274  0.00  0.00     0.143 A 
ATOM      4  C   LIG d   1       4.107  -1.654  -9.115  0.00  0.00     0.064 A 
ATOM      5  C   LIG d   1       4.621  -2.392 -10.275  0.00  0.00    -0.023 A 
ATOM      6  C   LIG d   1       3.998  -2.232 -11.464  0.00  0.00     0.041 A 
ATOM      7  C   LIG d   1       2.887  -1.357 -11.552  0.00  0.00     0.341 A 
ATOM      8  O   LIG d   1       2.335  -1.212 -12.628  0.00  0.00    -0.245 OA
ATOM      9  O   LIG d   1       2.423  -0.687 -10.490  0.00  0.00    -0.422 OA
ATOM     10  C   LIG d   1       4.434  -2.950 -12.713  0.00  0.00    -0.021 C 
ATOM     11  C   LIG d   1       5.857  -3.481 -12.561  0.00  0.00    -0.049 C 
ATOM     12  C   LIG d   1       5.940  -4.270 -11.249  0.00  0.00    -0.049 C 
ATOM     13  C   LIG d   1       5.816  -3.285 -10.088  0.00  0.00    -0.026 C 
ATOM     14  C   LIG d   1       4.713  -1.784  -7.854  0.00  0.00     0.147 A 
ATOM     15  C   LIG d   1       4.189  -1.060  -6.776  0.00  0.00     0.032 A 
ATOM     16  C   LIG d   1       5.031  -1.415  -5.618  0.00  0.00     0.031 A 
ATOM     17  C   LIG d   1       5.957  -2.282  -6.086  0.00  0.00     0.111 A 
ATOM     18  O   LIG d   1       5.760  -2.495  -7.397  0.00  0.00    -0.459 OA
ATOM     19  H   LIG d   1       1.646   0.547  -8.308  0.00  0.00     0.066 H 
ATOM     20  H   LIG d   1       4.396  -2.259 -13.556  0.00  0.00     0.032 H 
ATOM     21  H   LIG d   1       3.757  -3.784 -12.902  0.00  0.00     0.032 H 
ATOM     22  H   LIG d   1       6.560  -2.647 -12.532  0.00  0.00     0.027 H 
ATOM     23  H   LIG d   1       6.098  -4.135 -13.399  0.00  0.00     0.027 H 
ATOM     24  H   LIG d   1       6.897  -4.787 -11.191  0.00  0.00     0.027 H 
ATOM     25  H   LIG d   1       5.127  -4.995 -11.204  0.00  0.00     0.027 H 
ATOM     26  H   LIG d   1       6.717  -2.673 -10.038  0.00  0.00     0.031 H 
ATOM     27  H   LIG d   1       5.707  -3.840  -9.155  0.00  0.00     0.031 H 
ENDROOT
BRANCH  16  28
ATOM     28  C   LIG d   1       4.891  -0.920  -4.227  0.00  0.00    -0.014 A 
ATOM     29  C   LIG d   1       4.173  -1.662  -3.290  0.00  0.00    -0.054 A 
ATOM     30  C   LIG d   1       4.047  -1.197  -1.996  0.00  0.00    -0.061 A 
ATOM     31  H   LIG d   1       3.716  -2.598  -3.575  0.00  0.00     0.062 H 
ATOM     32  C   LIG d   1       4.632   0.002  -1.630  0.00  0.00    -0.062 A 
ATOM     33  H   LIG d   1       3.492  -1.770  -1.269  0.00  0.00     0.062 H 
ATOM     34  C   LIG d   1       5.346   0.742  -2.556  0.00  0.00    -0.061 A 
ATOM     35  H   LIG d   1       4.531   0.362  -0.616  0.00  0.00     0.062 H 
ATOM     36  C   LIG d   1       5.482   0.284  -3.850  0.00  0.00    -0.054 A 
ATOM     37  H   LIG d   1       5.799   1.678  -2.263  0.00  0.00     0.062 H 
ATOM     38  H   LIG d   1       6.044   0.860  -4.571  0.00  0.00     0.062 H 
ENDBRANCH  16  28
BRANCH  17  39
ATOM     39  C   LIG d   1       7.043  -2.920  -5.258  0.00  0.00    -0.006 C 
ATOM     40  H   LIG d   1       7.804  -3.338  -5.917  0.00  0.00     0.031 H 
ATOM     41  H   LIG d   1       6.615  -3.716  -4.647  0.00  0.00     0.031 H 
ATOM     42  H   LIG d   1       7.495  -2.169  -4.611  0.00  0.00     0.031 H 
ENDBRANCH  17  39
BRANCH   1  43
ATOM     43  C   LIG d   1       2.533   0.545  -5.782  0.00  0.00    -0.039 C 
ATOM     44  H   LIG d   1       2.454   1.600  -6.047  0.00  0.00     0.028 H 
ATOM     45  H   LIG d   1       1.547   0.160  -5.525  0.00  0.00     0.028 H 
ATOM     46  H   LIG d   1       3.201   0.434  -4.928  0.00  0.00     0.028 H 
ENDBRANCH   1  43
TORSDOF 3
ENDMDL
MODEL 2
REMARK VINA RESULT:      -6.5      4.799      7.974
REMARK  3 active torsions:
REMARK  status: ('A' for Active; 'I' for Inactive)
REMARK    1  A    between atoms: C_1  and  C_2 
REMARK    2  A    between atoms: C_17  and  C_21 
REMARK    3  A    between atoms: C_18  and  C_20 
ROOT
ATOM      1  C   LIG d   1       9.555  -0.663  -5.322  0.00  0.00    -0.036 A 
ATOM      2  C   LIG d   1       8.590  -1.621  -5.449  0.00  0.00    -0.015 A 
ATOM      3  C   LIG d   1       7.322  -1.421  -4.908  0.00  0.00     0.143 A 
ATOM      4  C   LIG d   1       7.031  -0.229  -4.227  0.00  0.00     0.064 A 
ATOM      5  C   LIG d   1       5.690  -0.032  -3.664  0.00  0.00    -0.023 A 
ATOM      6  C   LIG d   1       4.776  -1.014  -3.826  0.00  0.00     0.041 A 
ATOM      7  C   LIG d   1       5.142  -2.193  -4.520  0.00  0.00     0.341 A 
ATOM      8  O   LIG d   1       4.315  -3.078  -4.656  0.00  0.00    -0.245 OA
ATOM      9  O   LIG d   1       6.367  -2.367  -5.032  0.00  0.00    -0.422 OA
ATOM     10  C   LIG d   1       3.370  -0.910  -3.300  0.00  0.00    -0.021 C 
ATOM     11  C   LIG d   1       3.272   0.177  -2.232  0.00  0.00    -0.049 C 
ATOM     12  C   LIG d   1       3.893   1.462  -2.794  0.00  0.00    -0.049 C 
ATOM     13  C   LIG d   1       5.400   1.248  -2.928  0.00  0.00    -0.026 C 
ATOM     14  C   LIG d   1       8.021   0.760  -4.092  0.00  0.00     0.147 A 
ATOM     15  C   LIG d   1       9.286   0.529  -4.646  0.00  0.00     0.032 A 
ATOM     16  C   LIG d   1      10.075   1.736  -4.340  0.00  0.00     0.031 A 
ATOM     17  C   LIG d   1       9.250   2.553  -3.648  0.00  0.00     0.111 A 
ATOM     18  O   LIG d   1       8.046   1.973  -3.510  0.00  0.00    -0.459 OA
ATOM     19  H   LIG d   1       8.811  -2.538  -5.973  0.00  0.00     0.066 H 
ATOM     20  H   LIG d   1       3.077  -1.868  -2.866  0.00  0.00     0.032 H 
ATOM     21  H   LIG d   1       2.695  -0.668  -4.122  0.00  0.00     0.032 H 
ATOM     22  H   LIG d   1       3.817  -0.134  -1.340  0.00  0.00     0.027 H 
ATOM     23  H   LIG d   1       2.227   0.354  -1.980  0.00  0.00     0.027 H 
ATOM     24  H   LIG d   1       3.700   2.291  -2.115  0.00  0.00     0.027 H 
ATOM     25  H   LIG d   1       3.465   1.680  -3.773  0.00  0.00     0.027 H 
ATOM     26  H   LIG d   1       5.846   1.199  -1.935  0.00  0.00     0.031 H 
ATOM     27  H   LIG d   1       5.835   2.083  -3.477  0.00  0.00     0.031 H 
ENDROOT
BRANCH  16  28
ATOM     28  C   LIG d   1      11.487   1.999  -4.713  0.00  0.00    -0.014 A 
ATOM     29  C   LIG d   1      11.785   2.627  -5.921  0.00  0.00    -0.054 A 
ATOM     30  C   LIG d   1      13.100   2.870  -6.263  0.00  0.00    -0.061 A 
ATOM     31  H   LIG d   1      10.990   2.923  -6.588  0.00  0.00     0.062 H 
ATOM     32  C   LIG d   1      14.120   2.490  -5.408  0.00  0.00    -0.062 A 
ATOM     33  H   LIG d   1      13.333   3.357  -7.198  0.00  0.00     0.062 H 
ATOM     34  C   LIG d   1      13.830   1.867  -4.208  0.00  0.00    -0.061 A 
ATOM     35  H   LIG d   1      15.148   2.683  -5.680  0.00  0.00     0.062 H 
ATOM     36  C   LIG d   1      12.518   1.624  -3.855  0.00  0.00    -0.054 A 
ATOM     37  H   LIG d   1      14.631   1.572  -3.547  0.00  0.00     0.062 H 
ATOM     38  H   LIG d   1      12.292   1.141  -2.915  0.00  0.00     0.062 H 
ENDBRANCH  16  28
BRANCH  17  39
ATOM     39  C   LIG d   1       9.622   3.913  -3.116  0.00  0.00    -0.006 C 
ATOM     40  H   LIG d   1      10.634   4.163  -3.435  0.00  0.00     0.031 H 
ATOM     41  H   LIG d   1       9.578   3.902  -2.027  0.00  0.00     0.031 H 
ATOM     42  H   LIG d   1       8.925   4.657  -3.500  0.00  0.00     0.031 H 
ENDBRANCH  17  39
BRANCH   1  43
ATOM     43  C   LIG d   1      10.922  -0.895  -5.913  0.00  0.00    -0.039 C 
ATOM     44  H   LIG d   1      11.040  -1.952  -6.151  0.00  0.00     0.028 H 
ATOM     45  H   LIG d   1      11.031  -0.303  -6.820  0.00  0.00     0.028 H 
ATOM     46  H   LIG d   1      11.685  -0.599  -5.192  0.00  0.00     0.028 H 
ENDBRANCH   1  43
TORSDOF 3
ENDMDL
MODEL 3
REMARK VINA RESULT:      -6.5      2.157      7.612
REMARK  3 active torsions:
REMARK  status: ('A' for Active; 'I' for Inactive)
REMARK    1  A    between atoms: C_1  and  C_2 
REMARK    2  A    between atoms: C_17  and  C_21 
REMARK    3  A    between atoms: C_18  and  C_20 
ROOT
ATOM      1  C   LIG d   1       4.208  -2.488  -8.086  0.00  0.00    -0.036 A 
ATOM      2  C   LIG d   1       4.317  -3.118  -6.880  0.00  0.00    -0.015 A 
ATOM      3  C   LIG d   1       4.216  -2.394  -5.695  0.00  0.00     0.143 A 
ATOM      4  C   LIG d   1       3.998  -1.008  -5.736  0.00  0.00     0.064 A 
ATOM      5  C   LIG d   1       3.892  -0.258  -4.479  0.00  0.00    -0.023 A 
ATOM      6  C   LIG d   1       4.004  -0.938  -3.316  0.00  0.00     0.041 A 
ATOM      7  C   LIG d   1       4.228  -2.336  -3.350  0.00  0.00     0.341 A 
ATOM      8  O   LIG d   1       4.336  -2.942  -2.298  0.00  0.00    -0.245 OA
ATOM      9  O   LIG d   1       4.324  -3.014  -4.500  0.00  0.00    -0.422 OA
ATOM     10  C   LIG d   1       3.899  -0.271  -1.971  0.00  0.00    -0.021 C 
ATOM     11  C   LIG d   1       4.101   1.237  -2.100  0.00  0.00    -0.049 C 
ATOM     12  C   LIG d   1       3.168   1.757  -3.201  0.00  0.00    -0.049 C 
ATOM     13  C   LIG d   1       3.670   1.228  -4.544  0.00  0.00    -0.026 C 
ATOM     14  C   LIG d   1       3.885  -0.354  -6.975  0.00  0.00     0.147 A 
ATOM     15  C   LIG d   1       3.994  -1.109  -8.149  0.00  0.00     0.032 A 
ATOM     16  C   LIG d   1       3.829  -0.145  -9.253  0.00  0.00     0.031 A 
ATOM     17  C   LIG d   1       3.652   1.061  -8.668  0.00  0.00     0.111 A 
ATOM     18  O   LIG d   1       3.683   0.928  -7.332  0.00  0.00    -0.459 OA
ATOM     19  H   LIG d   1       4.483  -4.184  -6.844  0.00  0.00     0.066 H 
ATOM     20  H   LIG d   1       4.661  -0.680  -1.306  0.00  0.00     0.032 H 
ATOM     21  H   LIG d   1       2.912  -0.467  -1.549  0.00  0.00     0.032 H 
ATOM     22  H   LIG d   1       5.137   1.448  -2.368  0.00  0.00     0.027 H 
ATOM     23  H   LIG d   1       3.860   1.724  -1.155  0.00  0.00     0.027 H 
ATOM     24  H   LIG d   1       3.179   2.846  -3.209  0.00  0.00     0.027 H 
ATOM     25  H   LIG d   1       2.153   1.400  -3.022  0.00  0.00     0.027 H 
ATOM     26  H   LIG d   1       4.609   1.720  -4.796  0.00  0.00     0.031 H 
ATOM     27  H   LIG d   1       2.931   1.447  -5.315  0.00  0.00     0.031 H 
ENDROOT
BRANCH  16  28
ATOM     28  C   LIG d   1       3.856  -0.439 -10.707  0.00  0.00    -0.014 A 
ATOM     29  C   LIG d   1       5.042  -0.304 -11.426  0.00  0.00    -0.054 A 
ATOM     30  C   LIG d   1       5.062  -0.579 -12.778  0.00  0.00    -0.061 A 
ATOM     31  H   LIG d   1       5.945   0.016 -10.926  0.00  0.00     0.062 H 
ATOM     32  C   LIG d   1       3.906  -0.988 -13.419  0.00  0.00    -0.062 A 
ATOM     33  H   LIG d   1       5.980  -0.475 -13.337  0.00  0.00     0.062 H 
ATOM     34  C   LIG d   1       2.725  -1.124 -12.711  0.00  0.00    -0.061 A 
ATOM     35  H   LIG d   1       3.925  -1.202 -14.478  0.00  0.00     0.062 H 
ATOM     36  C   LIG d   1       2.697  -0.856 -11.357  0.00  0.00    -0.054 A 
ATOM     37  H   LIG d   1       1.826  -1.442 -13.218  0.00  0.00     0.062 H 
ATOM     38  H   LIG d   1       1.775  -0.967 -10.804  0.00  0.00     0.062 H 
ENDBRANCH  16  28
BRANCH  17  39
ATOM     39  C   LIG d   1       3.444   2.359  -9.405  0.00  0.00    -0.006 C 
ATOM     40  H   LIG d   1       4.397   2.709  -9.801  0.00  0.00     0.031 H 
ATOM     41  H   LIG d   1       3.039   3.105  -8.721  0.00  0.00     0.031 H 
ATOM     42  H   LIG d   1       2.745   2.202 -10.227  0.00  0.00     0.031 H 
ENDBRANCH  17  39
BRANCH   1  43
ATOM     43  C   LIG d   1       4.320  -3.285  -9.360  0.00  0.00    -0.039 C 
ATOM     44  H   LIG d   1       5.036  -4.096  -9.219  0.00  0.00     0.028 H 
ATOM     45  H   LIG d   1       3.347  -3.700  -9.617  0.00  0.00     0.028 H 
ATOM     46  H   LIG d   1       4.663  -2.636 -10.167  0.00  0.00     0.028 H 
ENDBRANCH   1  43
TORSDOF 3
ENDMDL
MODEL 4
REMARK VINA RESULT:      -6.5      4.480      7.566
REMARK  3 active torsions:
REMARK  status: ('A' for Active; 'I' for Inactive)
REMARK    1  A    between atoms: C_1  and  C_2 
REMARK    2  A    between atoms: C_17  and  C_21 
REMARK    3  A    between atoms: C_18  and  C_20 
ROOT
ATOM      1  C   LIG d   1       8.245  -0.067  -7.417  0.00  0.00    -0.036 A 
ATOM      2  C   LIG d   1       7.454  -1.174  -7.305  0.00  0.00    -0.015 A 
ATOM      3  C   LIG d   1       6.637  -1.347  -6.190  0.00  0.00     0.143 A 
ATOM      4  C   LIG d   1       6.623  -0.378  -5.174  0.00  0.00     0.064 A 
ATOM      5  C   LIG d   1       5.756  -0.573  -4.007  0.00  0.00    -0.023 A 
ATOM      6  C   LIG d   1       4.993  -1.687  -3.954  0.00  0.00     0.041 A 
ATOM      7  C   LIG d   1       5.062  -2.625  -5.013  0.00  0.00     0.341 A 
ATOM      8  O   LIG d   1       4.377  -3.631  -4.956  0.00  0.00    -0.245 OA
ATOM      9  O   LIG d   1       5.855  -2.442  -6.076  0.00  0.00    -0.422 OA
ATOM     10  C   LIG d   1       4.060  -1.980  -2.810  0.00  0.00    -0.021 C 
ATOM     11  C   LIG d   1       4.422  -1.136  -1.590  0.00  0.00    -0.049 C 
ATOM     12  C   LIG d   1       4.531   0.329  -2.031  0.00  0.00    -0.049 C 
ATOM     13  C   LIG d   1       5.763   0.470  -2.923  0.00  0.00    -0.026 C 
ATOM     14  C   LIG d   1       7.436   0.763  -5.285  0.00  0.00     0.147 A 
ATOM     15  C   LIG d   1       8.247   0.907  -6.417  0.00  0.00     0.032 A 
ATOM     16  C   LIG d   1       8.957   2.187  -6.231  0.00  0.00     0.031 A 
ATOM     17  C   LIG d   1       8.532   2.678  -5.045  0.00  0.00     0.111 A 
ATOM     18  O   LIG d   1       7.638   1.837  -4.499  0.00  0.00    -0.459 OA
ATOM     19  H   LIG d   1       7.462  -1.920  -8.084  0.00  0.00     0.066 H 
ATOM     20  H   LIG d   1       4.131  -3.037  -2.549  0.00  0.00     0.032 H 
ATOM     21  H   LIG d   1       3.037  -1.754  -3.113  0.00  0.00     0.032 H 
ATOM     22  H   LIG d   1       5.377  -1.468  -1.183  0.00  0.00     0.027 H 
ATOM     23  H   LIG d   1       3.646  -1.234  -0.830  0.00  0.00     0.027 H 
ATOM     24  H   LIG d   1       4.635   0.969  -1.157  0.00  0.00     0.027 H 
ATOM     25  H   LIG d   1       3.638   0.611  -2.590  0.00  0.00     0.027 H 
ATOM     26  H   LIG d   1       6.661   0.352  -2.317  0.00  0.00     0.031 H 
ATOM     27  H   LIG d   1       5.765   1.461  -3.379  0.00  0.00     0.031 H 
ENDROOT
BRANCH  16  28
ATOM     28  C   LIG d   1       9.937   2.807  -7.156  0.00  0.00    -0.014 A 
ATOM     29  C   LIG d   1       9.505   3.695  -8.140  0.00  0.00    -0.054 A 
ATOM     30  C   LIG d   1      10.421   4.270  -8.997  0.00  0.00    -0.061 A 
ATOM     31  H   LIG d   1       8.455   3.932  -8.232  0.00  0.00     0.062 H 
ATOM     32  C   LIG d   1      11.766   3.966  -8.880  0.00  0.00    -0.062 A 
ATOM     33  H   LIG d   1      10.088   4.957  -9.760  0.00  0.00     0.062 H 
ATOM     34  C   LIG d   1      12.200   3.086  -7.905  0.00  0.00    -0.061 A 
ATOM     35  H   LIG d   1      12.479   4.418  -9.553  0.00  0.00     0.062 H 
ATOM     36  C   LIG d   1      11.293   2.510  -7.040  0.00  0.00    -0.054 A 
ATOM     37  H   LIG d   1      13.251   2.852  -7.820  0.00  0.00     0.062 H 
ATOM     38  H   LIG d   1      11.634   1.826  -6.275  0.00  0.00     0.062 H 
ENDBRANCH  16  28
BRANCH  17  39
ATOM     39  C   LIG d   1       8.988   3.976  -4.431  0.00  0.00    -0.006 C 
ATOM     40  H   LIG d   1       9.240   3.813  -3.383  0.00  0.00     0.031 H 
ATOM     41  H   LIG d   1       8.188   4.713  -4.502  0.00  0.00     0.031 H 
ATOM     42  H   LIG d   1       9.866   4.341  -4.963  0.00  0.00     0.031 H 
ENDBRANCH  17  39
BRANCH   1  43
ATOM     43  C   LIG d   1       9.124   0.106  -8.629  0.00  0.00    -0.039 C 
ATOM     44  H   LIG d   1       9.608   1.082  -8.591  0.00  0.00     0.028 H 
ATOM     45  H   LIG d   1       9.882  -0.676  -8.643  0.00  0.00     0.028 H 
ATOM     46  H   LIG d   1       8.516   0.038  -9.532  0.00  0.00     0.028 H 
ENDBRANCH   1  43
TORSDOF 3
ENDMDL
MODEL 5
REMARK VINA RESULT:      -6.3      1.767      7.587
REMARK  3 active torsions:
REMARK  status: ('A' for Active; 'I' for Inactive)
REMARK    1  A    between atoms: C_1  and  C_2 
REMARK    2  A    between atoms: C_17  and  C_21 
REMARK    3  A    between atoms: C_18  and  C_20 
ROOT
ATOM      1  C   LIG d   1       5.941  -2.013  -8.650  0.00  0.00    -0.036 A 
ATOM      2  C   LIG d   1       6.683  -2.221  -7.522  0.00  0.00    -0.015 A 
ATOM      3  C   LIG d   1       6.177  -1.877  -6.271  0.00  0.00     0.143 A 
ATOM      4  C   LIG d   1       4.896  -1.314  -6.164  0.00  0.00     0.064 A 
ATOM      5  C   LIG d   1       4.375  -0.958  -4.839  0.00  0.00    -0.023 A 
ATOM      6  C   LIG d   1       5.155  -1.192  -3.760  0.00  0.00     0.041 A 
ATOM      7  C   LIG d   1       6.440  -1.759  -3.944  0.00  0.00     0.341 A 
ATOM      8  O   LIG d   1       7.141  -1.960  -2.967  0.00  0.00    -0.245 OA
ATOM      9  O   LIG d   1       6.909  -2.082  -5.155  0.00  0.00    -0.422 OA
ATOM     10  C   LIG d   1       4.715  -0.877  -2.356  0.00  0.00    -0.021 C 
ATOM     11  C   LIG d   1       3.543   0.102  -2.365  0.00  0.00    -0.049 C 
ATOM     12  C   LIG d   1       2.470  -0.439  -3.317  0.00  0.00    -0.049 C 
ATOM     13  C   LIG d   1       3.005  -0.346  -4.745  0.00  0.00    -0.026 C 
ATOM     14  C   LIG d   1       4.128  -1.097  -7.321  0.00  0.00     0.147 A 
ATOM     15  C   LIG d   1       4.665  -1.452  -8.564  0.00  0.00     0.032 A 
ATOM     16  C   LIG d   1       3.628  -1.106  -9.554  0.00  0.00     0.031 A 
ATOM     17  C   LIG d   1       2.600  -0.586  -8.846  0.00  0.00     0.111 A 
ATOM     18  O   LIG d   1       2.901  -0.587  -7.537  0.00  0.00    -0.459 OA
ATOM     19  H   LIG d   1       7.668  -2.655  -7.601  0.00  0.00     0.066 H 
ATOM     20  H   LIG d   1       5.548  -0.435  -1.809  0.00  0.00     0.032 H 
ATOM     21  H   LIG d   1       4.409  -1.799  -1.860  0.00  0.00     0.032 H 
ATOM     22  H   LIG d   1       3.883   1.079  -2.711  0.00  0.00     0.027 H 
ATOM     23  H   LIG d   1       3.130   0.192  -1.360  0.00  0.00     0.027 H 
ATOM     24  H   LIG d   1       1.563   0.157  -3.226  0.00  0.00     0.027 H 
ATOM     25  H   LIG d   1       2.252  -1.479  -3.074  0.00  0.00     0.027 H 
ATOM     26  H   LIG d   1       3.059   0.702  -5.041  0.00  0.00     0.031 H 
ATOM     27  H   LIG d   1       2.329  -0.874  -5.418  0.00  0.00     0.031 H 
ENDROOT
BRANCH  16  28
ATOM     28  C   LIG d   1       3.699  -1.290 -11.024  0.00  0.00    -0.014 A 
ATOM     29  C   LIG d   1       3.233  -2.469 -11.605  0.00  0.00    -0.054 A 
ATOM     30  C   LIG d   1       3.301  -2.634 -12.973  0.00  0.00    -0.061 A 
ATOM     31  H   LIG d   1       2.821  -3.251 -10.985  0.00  0.00     0.062 H 
ATOM     32  C   LIG d   1       3.830  -1.632 -13.767  0.00  0.00    -0.062 A 
ATOM     33  H   LIG d   1       2.941  -3.546 -13.425  0.00  0.00     0.062 H 
ATOM     34  C   LIG d   1       4.293  -0.460 -13.197  0.00  0.00    -0.061 A 
ATOM     35  H   LIG d   1       3.881  -1.766 -14.838  0.00  0.00     0.062 H 
ATOM     36  C   LIG d   1       4.225  -0.283 -11.830  0.00  0.00    -0.054 A 
ATOM     37  H   LIG d   1       4.705   0.318 -13.823  0.00  0.00     0.062 H 
ATOM     38  H   LIG d   1       4.582   0.635 -11.386  0.00  0.00     0.062 H 
ENDBRANCH  16  28
BRANCH  17  39
ATOM     39  C   LIG d   1       1.307  -0.085  -9.437  0.00  0.00    -0.006 C 
ATOM     40  H   LIG d   1       1.311  -0.251 -10.514  0.00  0.00     0.031 H 
ATOM     41  H   LIG d   1       1.204   0.981  -9.235  0.00  0.00     0.031 H 
ATOM     42  H   LIG d   1       0.471  -0.622  -8.990  0.00  0.00     0.031 H 
ENDBRANCH  17  39
BRANCH   1  43
ATOM     43  C   LIG d   1       6.503  -2.390  -9.996  0.00  0.00    -0.039 C 
ATOM     44  H   LIG d   1       7.542  -2.700  -9.882  0.00  0.00     0.028 H 
ATOM     45  H   LIG d   1       5.923  -3.211 -10.415  0.00  0.00     0.028 H 
ATOM     46  H   LIG d   1       6.452  -1.531 -10.665  0.00  0.00     0.028 H 
ENDBRANCH   1  43
TORSDOF 3
ENDMDL
MODEL 6
REMARK VINA RESULT:      -6.3     10.605     14.596
REMARK  3 active torsions:
REMARK  status: ('A' for Active; 'I' for Inactive)
REMARK    1  A    between atoms: C_1  and  C_2 
REMARK    2  A    between atoms: C_17  and  C_21 
REMARK    3  A    between atoms: C_18  and  C_20 
ROOT
ATOM      1  C   LIG d   1      10.219   6.316  -3.283  0.00  0.00    -0.036 A 
ATOM      2  C   LIG d   1      10.235   5.738  -2.046  0.00  0.00    -0.015 A 
ATOM      3  C   LIG d   1      10.616   6.476  -0.928  0.00  0.00     0.143 A 
ATOM      4  C   LIG d   1      10.986   7.822  -1.069  0.00  0.00     0.064 A 
ATOM      5  C   LIG d   1      11.384   8.587   0.118  0.00  0.00    -0.023 A 
ATOM      6  C   LIG d   1      11.375   7.961   1.316  0.00  0.00     0.041 A 
ATOM      7  C   LIG d   1      10.995   6.599   1.384  0.00  0.00     0.341 A 
ATOM      8  O   LIG d   1      10.996   6.039   2.466  0.00  0.00    -0.245 OA
ATOM      9  O   LIG d   1      10.633   5.906   0.297  0.00  0.00    -0.422 OA
ATOM     10  C   LIG d   1      11.753   8.655   2.598  0.00  0.00    -0.021 C 
ATOM     11  C   LIG d   1      12.538   9.932   2.309  0.00  0.00    -0.049 C 
ATOM     12  C   LIG d   1      11.753  10.760   1.284  0.00  0.00    -0.049 C 
ATOM     13  C   LIG d   1      11.788  10.025  -0.055  0.00  0.00    -0.026 C 
ATOM     14  C   LIG d   1      10.973   8.422  -2.340  0.00  0.00     0.147 A 
ATOM     15  C   LIG d   1      10.586   7.653  -3.445  0.00  0.00     0.032 A 
ATOM     16  C   LIG d   1      10.675   8.560  -4.605  0.00  0.00     0.031 A 
ATOM     17  C   LIG d   1      11.099   9.747  -4.115  0.00  0.00     0.111 A 
ATOM     18  O   LIG d   1      11.268   9.657  -2.786  0.00  0.00    -0.459 OA
ATOM     19  H   LIG d   1       9.949   4.703  -1.933  0.00  0.00     0.066 H 
ATOM     20  H   LIG d   1      12.367   7.984   3.202  0.00  0.00     0.032 H 
ATOM     21  H   LIG d   1      10.847   8.907   3.151  0.00  0.00     0.032 H 
ATOM     22  H   LIG d   1      13.517   9.678   1.902  0.00  0.00     0.027 H 
ATOM     23  H   LIG d   1      12.661  10.505   3.228  0.00  0.00     0.027 H 
ATOM     24  H   LIG d   1      12.211  11.742   1.176  0.00  0.00     0.027 H 
ATOM     25  H   LIG d   1      10.720  10.870   1.615  0.00  0.00     0.027 H 
ATOM     26  H   LIG d   1      12.799  10.068  -0.461  0.00  0.00     0.031 H 
ATOM     27  H   LIG d   1      11.102  10.510  -0.749  0.00  0.00     0.031 H 
ENDROOT
BRANCH  16  28
ATOM     28  C   LIG d   1      10.364   8.235  -6.018  0.00  0.00    -0.014 A 
ATOM     29  C   LIG d   1      11.322   7.617  -6.820  0.00  0.00    -0.054 A 
ATOM     30  C   LIG d   1      11.028   7.316  -8.135  0.00  0.00    -0.061 A 
ATOM     31  H   LIG d   1      12.293   7.373  -6.414  0.00  0.00     0.062 H 
ATOM     32  C   LIG d   1       9.785   7.628  -8.656  0.00  0.00    -0.062 A 
ATOM     33  H   LIG d   1      11.768   6.837  -8.757  0.00  0.00     0.062 H 
ATOM     34  C   LIG d   1       8.830   8.242  -7.865  0.00  0.00    -0.061 A 
ATOM     35  H   LIG d   1       9.559   7.391  -9.685  0.00  0.00     0.062 H 
ATOM     36  C   LIG d   1       9.113   8.542  -6.548  0.00  0.00    -0.054 A 
ATOM     37  H   LIG d   1       7.862   8.484  -8.278  0.00  0.00     0.062 H 
ATOM     38  H   LIG d   1       8.365   9.017  -5.929  0.00  0.00     0.062 H 
ENDBRANCH  16  28
BRANCH  17  39
ATOM     39  C   LIG d   1      11.339  10.987  -4.937  0.00  0.00    -0.006 C 
ATOM     40  H   LIG d   1      12.012  11.655  -4.399  0.00  0.00     0.031 H 
ATOM     41  H   LIG d   1      10.391  11.494  -5.116  0.00  0.00     0.031 H 
ATOM     42  H   LIG d   1      11.788  10.710  -5.891  0.00  0.00     0.031 H 
ENDBRANCH  17  39
BRANCH   1  43
ATOM     43  C   LIG d   1       9.805   5.504  -4.483  0.00  0.00    -0.039 C 
ATOM     44  H   LIG d   1      10.577   4.767  -4.707  0.00  0.00     0.028 H 
ATOM     45  H   LIG d   1       8.866   4.994  -4.271  0.00  0.00     0.028 H 
ATOM     46  H   LIG d   1       9.674   6.164  -5.341  0.00  0.00     0.028 H 
ENDBRANCH   1  43
TORSDOF 3
ENDMDL
MODEL 7
REMARK VINA RESULT:      -6.2      9.394     13.081
REMARK  3 active torsions:
REMARK  status: ('A' for Active; 'I' for Inactive)
REMARK    1  A    between atoms: C_1  and  C_2 
REMARK    2  A    between atoms: C_17  and  C_21 
REMARK    3  A    between atoms: C_18  and  C_20 
ROOT
ATOM      1  C   LIG d   1       9.998   5.295  -5.405  0.00  0.00    -0.036 A 
ATOM      2  C   LIG d   1      10.062   4.939  -4.088  0.00  0.00    -0.015 A 
ATOM      3  C   LIG d   1      10.124   5.915  -3.096  0.00  0.00     0.143 A 
ATOM      4  C   LIG d   1      10.121   7.274  -3.448  0.00  0.00     0.064 A 
ATOM      5  C   LIG d   1      10.185   8.290  -2.392  0.00  0.00    -0.023 A 
ATOM      6  C   LIG d   1      10.242   7.877  -1.106  0.00  0.00     0.041 A 
ATOM      7  C   LIG d   1      10.247   6.488  -0.825  0.00  0.00     0.341 A 
ATOM      8  O   LIG d   1      10.307   6.122   0.336  0.00  0.00    -0.245 OA
ATOM      9  O   LIG d   1      10.188   5.566  -1.793  0.00  0.00    -0.422 OA
ATOM     10  C   LIG d   1      10.299   8.834   0.054  0.00  0.00    -0.021 C 
ATOM     11  C   LIG d   1      10.724  10.224  -0.414  0.00  0.00    -0.049 C 
ATOM     12  C   LIG d   1       9.836  10.628  -1.596  0.00  0.00    -0.049 C 
ATOM     13  C   LIG d   1      10.191   9.741  -2.789  0.00  0.00    -0.026 C 
ATOM     14  C   LIG d   1      10.056   7.646  -4.802  0.00  0.00     0.147 A 
ATOM     15  C   LIG d   1       9.996   6.642  -5.775  0.00  0.00     0.032 A 
ATOM     16  C   LIG d   1       9.934   7.350  -7.067  0.00  0.00     0.031 A 
ATOM     17  C   LIG d   1       9.969   8.668  -6.769  0.00  0.00     0.111 A 
ATOM     18  O   LIG d   1      10.038   8.832  -5.437  0.00  0.00    -0.459 OA
ATOM     19  H   LIG d   1      10.063   3.895  -3.814  0.00  0.00     0.066 H 
ATOM     20  H   LIG d   1      11.017   8.466   0.788  0.00  0.00     0.032 H 
ATOM     21  H   LIG d   1       9.313   8.896   0.517  0.00  0.00     0.032 H 
ATOM     22  H   LIG d   1      11.768  10.202  -0.730  0.00  0.00     0.027 H 
ATOM     23  H   LIG d   1      10.602  10.940   0.399  0.00  0.00     0.027 H 
ATOM     24  H   LIG d   1      10.013  11.672  -1.850  0.00  0.00     0.027 H 
ATOM     25  H   LIG d   1       8.787  10.486  -1.334  0.00  0.00     0.027 H 
ATOM     26  H   LIG d   1      11.184  10.009  -3.153  0.00  0.00     0.031 H 
ATOM     27  H   LIG d   1       9.463   9.898  -3.584  0.00  0.00     0.031 H 
ENDROOT
BRANCH  16  28
ATOM     28  C   LIG d   1       9.852   6.741  -8.417  0.00  0.00    -0.014 A 
ATOM     29  C   LIG d   1       8.609   6.500  -9.001  0.00  0.00    -0.054 A 
ATOM     30  C   LIG d   1       8.538   5.934 -10.258  0.00  0.00    -0.061 A 
ATOM     31  H   LIG d   1       7.703   6.755  -8.471  0.00  0.00     0.062 H 
ATOM     32  C   LIG d   1       9.698   5.606 -10.937  0.00  0.00    -0.062 A 
ATOM     33  H   LIG d   1       7.577   5.746 -10.712  0.00  0.00     0.062 H 
ATOM     34  C   LIG d   1      10.934   5.843 -10.363  0.00  0.00    -0.061 A 
ATOM     35  H   LIG d   1       9.638   5.163 -11.921  0.00  0.00     0.062 H 
ATOM     36  C   LIG d   1      11.016   6.414  -9.109  0.00  0.00    -0.054 A 
ATOM     37  H   LIG d   1      11.836   5.584 -10.898  0.00  0.00     0.062 H 
ATOM     38  H   LIG d   1      11.982   6.603  -8.663  0.00  0.00     0.062 H 
ENDBRANCH  16  28
BRANCH  17  39
ATOM     39  C   LIG d   1       9.931   9.787  -7.778  0.00  0.00    -0.006 C 
ATOM     40  H   LIG d   1       8.947   9.820  -8.247  0.00  0.00     0.031 H 
ATOM     41  H   LIG d   1      10.691   9.614  -8.541  0.00  0.00     0.031 H 
ATOM     42  H   LIG d   1      10.127  10.735  -7.278  0.00  0.00     0.031 H 
ENDBRANCH  17  39
BRANCH   1  43
ATOM     43  C   LIG d   1       9.931   4.228  -6.466  0.00  0.00    -0.039 C 
ATOM     44  H   LIG d   1       9.996   3.246  -5.997  0.00  0.00     0.028 H 
ATOM     45  H   LIG d   1       8.990   4.311  -7.007  0.00  0.00     0.028 H 
ATOM     46  H   LIG d   1      10.762   4.353  -7.161  0.00  0.00     0.028 H 
ENDBRANCH   1  43
TORSDOF 3
ENDMDL
MODEL 8
REMARK VINA RESULT:      -6.1      4.346      7.856
REMARK  3 active torsions:
REMARK  status: ('A' for Active; 'I' for Inactive)
REMARK    1  A    between atoms: C_1  and  C_2 
REMARK    2  A    between atoms: C_17  and  C_21 
REMARK    3  A    between atoms: C_18  and  C_20 
ROOT
ATOM      1  C   LIG d   1       8.483  -3.072  -6.462  0.00  0.00    -0.036 A 
ATOM      2  C   LIG d   1       8.715  -1.803  -6.014  0.00  0.00    -0.015 A 
ATOM      3  C   LIG d   1       7.839  -1.204  -5.112  0.00  0.00     0.143 A 
ATOM      4  C   LIG d   1       6.711  -1.905  -4.659  0.00  0.00     0.064 A 
ATOM      5  C   LIG d   1       5.798  -1.261  -3.707  0.00  0.00    -0.023 A 
ATOM      6  C   LIG d   1       6.082  -0.005  -3.296  0.00  0.00     0.041 A 
ATOM      7  C   LIG d   1       7.235   0.644  -3.800  0.00  0.00     0.341 A 
ATOM      8  O   LIG d   1       7.482   1.779  -3.431  0.00  0.00    -0.245 OA
ATOM      9  O   LIG d   1       8.065   0.051  -4.667  0.00  0.00    -0.422 OA
ATOM     10  C   LIG d   1       5.220   0.743  -2.315  0.00  0.00    -0.021 C 
ATOM     11  C   LIG d   1       3.835   0.108  -2.219  0.00  0.00    -0.049 C 
ATOM     12  C   LIG d   1       4.010  -1.396  -1.974  0.00  0.00    -0.049 C 
ATOM     13  C   LIG d   1       4.589  -2.024  -3.241  0.00  0.00    -0.026 C 
ATOM     14  C   LIG d   1       6.468  -3.211  -5.118  0.00  0.00     0.147 A 
ATOM     15  C   LIG d   1       7.366  -3.786  -6.025  0.00  0.00     0.032 A 
ATOM     16  C   LIG d   1       6.838  -5.135  -6.300  0.00  0.00     0.031 A 
ATOM     17  C   LIG d   1       5.706  -5.246  -5.568  0.00  0.00     0.111 A 
ATOM     18  O   LIG d   1       5.499  -4.114  -4.876  0.00  0.00    -0.459 OA
ATOM     19  H   LIG d   1       9.582  -1.261  -6.359  0.00  0.00     0.066 H 
ATOM     20  H   LIG d   1       5.119   1.779  -2.642  0.00  0.00     0.032 H 
ATOM     21  H   LIG d   1       5.694   0.722  -1.332  0.00  0.00     0.032 H 
ATOM     22  H   LIG d   1       3.292   0.267  -3.151  0.00  0.00     0.027 H 
ATOM     23  H   LIG d   1       3.282   0.552  -1.392  0.00  0.00     0.027 H 
ATOM     24  H   LIG d   1       3.045  -1.847  -1.749  0.00  0.00     0.027 H 
ATOM     25  H   LIG d   1       4.694  -1.556  -1.140  0.00  0.00     0.027 H 
ATOM     26  H   LIG d   1       3.832  -2.012  -4.026  0.00  0.00     0.031 H 
ATOM     27  H   LIG d   1       4.874  -3.056  -3.034  0.00  0.00     0.031 H 
ENDROOT
BRANCH  16  28
ATOM     28  C   LIG d   1       7.426  -6.159  -7.197  0.00  0.00    -0.014 A 
ATOM     29  C   LIG d   1       8.345  -7.081  -6.699  0.00  0.00    -0.054 A 
ATOM     30  C   LIG d   1       8.889  -8.032  -7.538  0.00  0.00    -0.061 A 
ATOM     31  H   LIG d   1       8.632  -7.050  -5.658  0.00  0.00     0.062 H 
ATOM     32  C   LIG d   1       8.523  -8.071  -8.872  0.00  0.00    -0.062 A 
ATOM     33  H   LIG d   1       9.601  -8.747  -7.153  0.00  0.00     0.062 H 
ATOM     34  C   LIG d   1       7.611  -7.159  -9.372  0.00  0.00    -0.061 A 
ATOM     35  H   LIG d   1       8.951  -8.817  -9.525  0.00  0.00     0.062 H 
ATOM     36  C   LIG d   1       7.057  -6.207  -8.540  0.00  0.00    -0.054 A 
ATOM     37  H   LIG d   1       7.330  -7.194 -10.414  0.00  0.00     0.062 H 
ATOM     38  H   LIG d   1       6.341  -5.498  -8.931  0.00  0.00     0.062 H 
ENDBRANCH  16  28
BRANCH  17  39
ATOM     39  C   LIG d   1       4.815  -6.460  -5.529  0.00  0.00    -0.006 C 
ATOM     40  H   LIG d   1       4.286  -6.553  -6.478  0.00  0.00     0.031 H 
ATOM     41  H   LIG d   1       4.092  -6.355  -4.720  0.00  0.00     0.031 H 
ATOM     42  H   LIG d   1       5.420  -7.351  -5.362  0.00  0.00     0.031 H 
ENDBRANCH  17  39
BRANCH   1  43
ATOM     43  C   LIG d   1       9.440  -3.707  -7.438  0.00  0.00    -0.039 C 
ATOM     44  H   LIG d   1       8.896  -4.398  -8.082  0.00  0.00     0.028 H 
ATOM     45  H   LIG d   1       9.906  -2.933  -8.047  0.00  0.00     0.028 H 
ATOM     46  H   LIG d   1      10.210  -4.251  -6.891  0.00  0.00     0.028 H 
ENDBRANCH   1  43
TORSDOF 3
ENDMDL
MODEL 9
REMARK VINA RESULT:      -6.0     11.170     13.757
REMARK  3 active torsions:
REMARK  status: ('A' for Active; 'I' for Inactive)
REMARK    1  A    between atoms: C_1  and  C_2 
REMARK    2  A    between atoms: C_17  and  C_21 
REMARK    3  A    between atoms: C_18  and  C_20 
ROOT
ATOM      1  C   LIG d   1      10.203   8.103  -6.116  0.00  0.00    -0.036 A 
ATOM      2  C   LIG d   1      10.011   9.043  -7.088  0.00  0.00    -0.015 A 
ATOM      3  C   LIG d   1       9.870  10.387  -6.751  0.00  0.00     0.143 A 
ATOM      4  C   LIG d   1       9.927  10.781  -5.405  0.00  0.00     0.064 A 
ATOM      5  C   LIG d   1       9.778  12.201  -5.065  0.00  0.00    -0.023 A 
ATOM      6  C   LIG d   1       9.595  13.085  -6.071  0.00  0.00     0.041 A 
ATOM      7  C   LIG d   1       9.543  12.615  -7.406  0.00  0.00     0.341 A 
ATOM      8  O   LIG d   1       9.370  13.416  -8.308  0.00  0.00    -0.245 OA
ATOM      9  O   LIG d   1       9.680  11.318  -7.710  0.00  0.00    -0.422 OA
ATOM     10  C   LIG d   1       9.444  14.564  -5.836  0.00  0.00    -0.021 C 
ATOM     11  C   LIG d   1       9.084  14.845  -4.378  0.00  0.00    -0.049 C 
ATOM     12  C   LIG d   1      10.086  14.104  -3.484  0.00  0.00    -0.049 C 
ATOM     13  C   LIG d   1       9.831  12.604  -3.617  0.00  0.00    -0.026 C 
ATOM     14  C   LIG d   1      10.123   9.818  -4.401  0.00  0.00     0.147 A 
ATOM     15  C   LIG d   1      10.260   8.475  -4.772  0.00  0.00     0.032 A 
ATOM     16  C   LIG d   1      10.453   7.736  -3.510  0.00  0.00     0.031 A 
ATOM     17  C   LIG d   1      10.409   8.664  -2.527  0.00  0.00     0.111 A 
ATOM     18  O   LIG d   1      10.218   9.882  -3.060  0.00  0.00    -0.459 OA
ATOM     19  H   LIG d   1       9.968   8.743  -8.124  0.00  0.00     0.066 H 
ATOM     20  H   LIG d   1       8.655  14.952  -6.482  0.00  0.00     0.032 H 
ATOM     21  H   LIG d   1      10.383  15.064  -6.077  0.00  0.00     0.032 H 
ATOM     22  H   LIG d   1       8.075  14.487  -4.173  0.00  0.00     0.027 H 
ATOM     23  H   LIG d   1       9.141  15.915  -4.184  0.00  0.00     0.027 H 
ATOM     24  H   LIG d   1       9.948  14.409  -2.447  0.00  0.00     0.027 H 
ATOM     25  H   LIG d   1      11.103  14.333  -3.802  0.00  0.00     0.027 H 
ATOM     26  H   LIG d   1       8.881  12.357  -3.142  0.00  0.00     0.031 H 
ATOM     27  H   LIG d   1      10.633  12.057  -3.121  0.00  0.00     0.031 H 
ENDROOT
BRANCH  16  28
ATOM     28  C   LIG d   1      10.652   6.275  -3.351  0.00  0.00    -0.014 A 
ATOM     29  C   LIG d   1      11.940   5.742  -3.339  0.00  0.00    -0.054 A 
ATOM     30  C   LIG d   1      12.120   4.382  -3.191  0.00  0.00    -0.061 A 
ATOM     31  H   LIG d   1      12.796   6.392  -3.447  0.00  0.00     0.062 H 
ATOM     32  C   LIG d   1      11.024   3.549  -3.053  0.00  0.00    -0.062 A 
ATOM     33  H   LIG d   1      13.117   3.968  -3.181  0.00  0.00     0.062 H 
ATOM     34  C   LIG d   1       9.744   4.072  -3.064  0.00  0.00    -0.061 A 
ATOM     35  H   LIG d   1      11.170   2.484  -2.937  0.00  0.00     0.062 H 
ATOM     36  C   LIG d   1       9.553   5.431  -3.206  0.00  0.00    -0.054 A 
ATOM     37  H   LIG d   1       8.893   3.415  -2.957  0.00  0.00     0.062 H 
ATOM     38  H   LIG d   1       8.553   5.839  -3.210  0.00  0.00     0.062 H 
ENDBRANCH  16  28
BRANCH  17  39
ATOM     39  C   LIG d   1      10.558   8.376  -1.056  0.00  0.00    -0.006 C 
ATOM     40  H   LIG d   1      11.616   8.285  -0.808  0.00  0.00     0.031 H 
ATOM     41  H   LIG d   1      10.047   7.444  -0.814  0.00  0.00     0.031 H 
ATOM     42  H   LIG d   1      10.119   9.190  -0.479  0.00  0.00     0.031 H 
ENDBRANCH  17  39
BRANCH   1  43
ATOM     43  C   LIG d   1      10.353   6.652  -6.497  0.00  0.00    -0.039 C 
ATOM     44  H   LIG d   1      11.016   6.157  -5.786  0.00  0.00     0.028 H 
ATOM     45  H   LIG d   1       9.377   6.169  -6.481  0.00  0.00     0.028 H 
ATOM     46  H   LIG d   1      10.778   6.582  -7.499  0.00  0.00     0.028 H 
ENDBRANCH   1  43
TORSDOF 3
ENDMDL
