MODEL 1
REMARK VINA RESULT:      -5.9      0.000      0.000
REMARK  11 active torsions:
REMARK  status: ('A' for Active; 'I' for Inactive)
REMARK    1  A    between atoms: C_1  and  C_2 
REMARK    2  A    between atoms: C_4  and  C_31 
REMARK    3  A    between atoms: C_6  and  C_28 
REMARK    4  A    between atoms: C_9  and  C_11 
REMARK    5  A    between atoms: C_11  and  C_12 
REMARK       I    between atoms: C_12  and  N_14 
REMARK    6  A    between atoms: N_17  and  C_20 
REMARK    7  A    between atoms: C_25  and  O_26 
REMARK    8  A    between atoms: O_26  and  C_27 
REMARK    9  A    between atoms: C_28  and  C_29 
REMARK   10  A    between atoms: C_28  and  C_30 
REMARK   11  A    between atoms: C_31  and  O_32 
ROOT
ATOM      1  C   LIG d   1       8.358  -5.759  -4.482  0.00  0.00     0.031 C 
ATOM      2  H   LIG d   1       7.992  -6.176  -5.433  0.00  0.00     0.036 H 
ATOM      3  H   LIG d   1       7.557  -5.801  -3.729  0.00  0.00     0.036 H 
ENDROOT
BRANCH   1   4
ATOM      4  C   LIG d   1       9.557  -6.578  -3.996  0.00  0.00    -0.012 C 
ATOM      5  C   LIG d   1       9.425  -6.826  -2.522  0.00  0.00    -0.073 C 
ATOM      6  C   LIG d   1       9.046  -7.953  -2.008  0.00  0.00    -0.079 C 
ATOM      7  C   LIG d   1       8.697  -9.169  -2.813  0.00  0.00     0.004 C 
ATOM      8  H   LIG d   1       8.966  -8.058  -0.916  0.00  0.00     0.058 H 
ATOM      9  H   LIG d   1       9.546  -9.866  -2.762  0.00  0.00     0.037 H 
ATOM     10  C   LIG d   1       8.439  -8.781  -4.270  0.00  0.00    -0.030 C 
ATOM     11  H   LIG d   1       7.491  -8.229  -4.352  0.00  0.00     0.031 H 
ATOM     12  C   LIG d   1       9.603  -7.907  -4.753  0.00  0.00    -0.042 C 
ATOM     13  H   LIG d   1      10.555  -8.420  -4.552  0.00  0.00     0.027 H 
ATOM     14  H   LIG d   1       9.505  -7.728  -5.834  0.00  0.00     0.027 H 
ATOM     15  H   LIG d   1      10.493  -6.024  -4.165  0.00  0.00     0.035 H 
BRANCH   5  16
ATOM     16  C   LIG d   1       9.753  -5.695  -1.583  0.00  0.00    -0.043 C 
ATOM     17  H   LIG d   1      10.745  -5.862  -1.139  0.00  0.00     0.027 H 
ATOM     18  H   LIG d   1       8.997  -5.649  -0.784  0.00  0.00     0.027 H 
ATOM     19  H   LIG d   1       9.755  -4.745  -2.139  0.00  0.00     0.027 H 
ENDBRANCH   5  16
BRANCH   7  20
ATOM     20  C   LIG d   1       7.439  -9.818  -2.231  0.00  0.00     0.051 C 
ATOM     21  H   LIG d   1       6.569  -9.552  -2.851  0.00  0.00     0.056 H 
ATOM     22  H   LIG d   1       7.561 -10.911  -2.221  0.00  0.00     0.056 H 
BRANCH  20  23
ATOM     23  O   LIG d   1       7.235  -9.349  -0.897  0.00  0.00    -0.394 OA
ATOM     24  H   LIG d   1       7.229  -8.269  -0.689  0.00  0.00     0.209 HD
ENDBRANCH  20  23
ENDBRANCH   7  20
BRANCH  10  25
ATOM     25  C   LIG d   1       8.351 -10.042  -5.131  0.00  0.00    -0.043 C 
ATOM     26  H   LIG d   1       7.575 -10.709  -4.727  0.00  0.00     0.030 H 
BRANCH  25  27
ATOM     27  C   LIG d   1       7.994  -9.655  -6.568  0.00  0.00    -0.062 C 
ATOM     28  H   LIG d   1       7.006 -10.069  -6.824  0.00  0.00     0.023 H 
ATOM     29  H   LIG d   1       8.751 -10.061  -7.256  0.00  0.00     0.023 H 
ATOM     30  H   LIG d   1       7.966  -8.559  -6.657  0.00  0.00     0.023 H 
ENDBRANCH  25  27
BRANCH  25  31
ATOM     31  C   LIG d   1       9.700 -10.763  -5.118  0.00  0.00    -0.062 C 
ATOM     32  H   LIG d   1       9.611 -11.700  -4.548  0.00  0.00     0.023 H 
ATOM     33  H   LIG d   1      10.456 -10.118  -4.647  0.00  0.00     0.023 H 
ATOM     34  H   LIG d   1      10.005 -10.990  -6.151  0.00  0.00     0.023 H 
ENDBRANCH  25  31
ENDBRANCH  10  25
ENDBRANCH   1   4
BRANCH   1  35
ATOM     35  C   LIG d   1       8.778  -4.328  -4.690  0.00  0.00     0.216 C 
ATOM     36  O   LIG d   1       9.950  -4.022  -4.616  0.00  0.00    -0.276 OA
ATOM     37  N   LIG d   1       7.852  -3.386  -4.957  0.00  0.00    -0.298 N 
ATOM     38  C   LIG d   1       8.241  -1.982  -5.163  0.00  0.00     0.030 C 
ATOM     39  C   LIG d   1       6.427  -3.734  -5.057  0.00  0.00     0.030 C 
ATOM     40  C   LIG d   1       7.376  -1.099  -4.258  0.00  0.00     0.028 C 
ATOM     41  H   LIG d   1       9.303  -1.854  -4.908  0.00  0.00     0.048 H 
ATOM     42  H   LIG d   1       8.082  -1.708  -6.217  0.00  0.00     0.048 H 
ATOM     43  N   LIG d   1       5.957  -1.394  -4.502  0.00  0.00    -0.324 NA
ATOM     44  H   LIG d   1       7.574  -0.040  -4.478  0.00  0.00     0.048 H 
ATOM     45  H   LIG d   1       7.617  -1.305  -3.205  0.00  0.00     0.048 H 
ATOM     46  C   LIG d   1       5.633  -2.782  -4.149  0.00  0.00     0.028 C 
ATOM     47  H   LIG d   1       4.556  -2.956  -4.289  0.00  0.00     0.048 H 
ATOM     48  H   LIG d   1       5.901  -2.968  -3.099  0.00  0.00     0.048 H 
ATOM     49  H   LIG d   1       6.096  -3.627  -6.100  0.00  0.00     0.048 H 
ATOM     50  H   LIG d   1       6.282  -4.775  -4.732  0.00  0.00     0.048 H 
BRANCH  43  51
ATOM     51  C   LIG d   1       5.133  -0.496  -3.815  0.00  0.00     0.072 A 
ATOM     52  C   LIG d   1       3.945  -0.054  -4.393  0.00  0.00     0.141 A 
ATOM     53  C   LIG d   1       3.134   0.835  -3.707  0.00  0.00    -0.018 A 
ATOM     54  C   LIG d   1       3.503   1.282  -2.452  0.00  0.00    -0.058 A 
ATOM     55  H   LIG d   1       2.212   1.179  -4.153  0.00  0.00     0.066 H 
ATOM     56  C   LIG d   1       4.682   0.843  -1.878  0.00  0.00    -0.060 A 
ATOM     57  H   LIG d   1       2.869   1.975  -1.919  0.00  0.00     0.062 H 
ATOM     58  C   LIG d   1       5.495  -0.047  -2.553  0.00  0.00    -0.037 A 
ATOM     59  H   LIG d   1       4.966   1.195  -0.896  0.00  0.00     0.062 H 
ATOM     60  H   LIG d   1       6.413  -0.390  -2.100  0.00  0.00     0.064 H 
BRANCH  52  61
ATOM     61  O   LIG d   1       3.582  -0.495  -5.627  0.00  0.00    -0.493 OA
BRANCH  61  62
ATOM     62  C   LIG d   1       2.810   0.396  -6.433  0.00  0.00     0.079 C 
ATOM     63  H   LIG d   1       1.753   0.093  -6.407  0.00  0.00     0.066 H 
ATOM     64  H   LIG d   1       3.174   0.363  -7.471  0.00  0.00     0.066 H 
ATOM     65  H   LIG d   1       2.906   1.421  -6.044  0.00  0.00     0.066 H 
ENDBRANCH  61  62
ENDBRANCH  52  61
ENDBRANCH  43  51
ENDBRANCH   1  35
TORSDOF 11
ENDMDL
MODEL 2
REMARK VINA RESULT:      -5.8      5.223      8.863
REMARK  11 active torsions:
REMARK  status: ('A' for Active; 'I' for Inactive)
REMARK    1  A    between atoms: C_1  and  C_2 
REMARK    2  A    between atoms: C_4  and  C_31 
REMARK    3  A    between atoms: C_6  and  C_28 
REMARK    4  A    between atoms: C_9  and  C_11 
REMARK    5  A    between atoms: C_11  and  C_12 
REMARK       I    between atoms: C_12  and  N_14 
REMARK    6  A    between atoms: N_17  and  C_20 
REMARK    7  A    between atoms: C_25  and  O_26 
REMARK    8  A    between atoms: O_26  and  C_27 
REMARK    9  A    between atoms: C_28  and  C_29 
REMARK   10  A    between atoms: C_28  and  C_30 
REMARK   11  A    between atoms: C_31  and  O_32 
ROOT
ATOM      1  C   LIG d   1       3.433  -2.919  -9.833  0.00  0.00     0.031 C 
ATOM      2  H   LIG d   1       3.632  -3.587 -10.685  0.00  0.00     0.036 H 
ATOM      3  H   LIG d   1       4.004  -1.986  -9.956  0.00  0.00     0.036 H 
ENDROOT
BRANCH   1   4
ATOM      4  C   LIG d   1       1.938  -2.596  -9.778  0.00  0.00    -0.012 C 
ATOM      5  C   LIG d   1       1.683  -1.294 -10.478  0.00  0.00    -0.073 C 
ATOM      6  C   LIG d   1       1.180  -1.197 -11.667  0.00  0.00    -0.079 C 
ATOM      7  C   LIG d   1       0.772  -2.372 -12.506  0.00  0.00     0.004 C 
ATOM      8  H   LIG d   1       1.028  -0.206 -12.120  0.00  0.00     0.058 H 
ATOM      9  H   LIG d   1      -0.324  -2.457 -12.461  0.00  0.00     0.037 H 
ATOM     10  C   LIG d   1       1.408  -3.653 -11.964  0.00  0.00    -0.030 C 
ATOM     11  H   LIG d   1       2.490  -3.651 -12.166  0.00  0.00     0.031 H 
ATOM     12  C   LIG d   1       1.151  -3.722 -10.454  0.00  0.00    -0.042 C 
ATOM     13  H   LIG d   1       0.076  -3.598 -10.259  0.00  0.00     0.027 H 
ATOM     14  H   LIG d   1       1.483  -4.697 -10.069  0.00  0.00     0.027 H 
ATOM     15  H   LIG d   1       1.607  -2.491  -8.734  0.00  0.00     0.035 H 
BRANCH   5  16
ATOM     16  C   LIG d   1       2.035  -0.021  -9.754  0.00  0.00    -0.043 C 
ATOM     17  H   LIG d   1       2.915   0.439 -10.227  0.00  0.00     0.027 H 
ATOM     18  H   LIG d   1       2.262  -0.247  -8.701  0.00  0.00     0.027 H 
ATOM     19  H   LIG d   1       1.185   0.677  -9.804  0.00  0.00     0.027 H 
ENDBRANCH   5  16
BRANCH   7  20
ATOM     20  C   LIG d   1       1.230  -2.148 -13.949  0.00  0.00     0.051 C 
ATOM     21  H   LIG d   1       1.051  -3.062 -14.536  0.00  0.00     0.056 H 
ATOM     22  H   LIG d   1       0.665  -1.313 -14.388  0.00  0.00     0.056 H 
BRANCH  20  23
ATOM     23  O   LIG d   1       2.625  -1.839 -13.963  0.00  0.00    -0.394 OA
ATOM     24  H   LIG d   1       3.269  -2.165 -13.132  0.00  0.00     0.209 HD
ENDBRANCH  20  23
ENDBRANCH   7  20
BRANCH  10  25
ATOM     25  C   LIG d   1       0.780  -4.869 -12.649  0.00  0.00    -0.043 C 
ATOM     26  H   LIG d   1       0.877  -4.766 -13.740  0.00  0.00     0.030 H 
BRANCH  25  27
ATOM     27  C   LIG d   1       1.499  -6.140 -12.191  0.00  0.00    -0.062 C 
ATOM     28  H   LIG d   1       1.044  -6.503 -11.257  0.00  0.00     0.023 H 
ATOM     29  H   LIG d   1       2.563  -5.917 -12.018  0.00  0.00     0.023 H 
ATOM     30  H   LIG d   1       1.407  -6.913 -12.969  0.00  0.00     0.023 H 
ENDBRANCH  25  27
BRANCH  25  31
ATOM     31  C   LIG d   1      -0.700  -4.957 -12.274  0.00  0.00    -0.062 C 
ATOM     32  H   LIG d   1      -1.096  -5.940 -12.569  0.00  0.00     0.023 H 
ATOM     33  H   LIG d   1      -1.258  -4.165 -12.795  0.00  0.00     0.023 H 
ATOM     34  H   LIG d   1      -0.811  -4.829 -11.186  0.00  0.00     0.023 H 
ENDBRANCH  25  31
ENDBRANCH  10  25
ENDBRANCH   1   4
BRANCH   1  35
ATOM     35  C   LIG d   1       3.848  -3.597  -8.554  0.00  0.00     0.216 C 
ATOM     36  O   LIG d   1       3.577  -4.765  -8.371  0.00  0.00    -0.276 OA
ATOM     37  N   LIG d   1       4.521  -2.907  -7.613  0.00  0.00    -0.298 N 
ATOM     38  C   LIG d   1       4.937  -3.550  -6.356  0.00  0.00     0.030 C 
ATOM     39  C   LIG d   1       4.866  -1.492  -7.816  0.00  0.00     0.030 C 
ATOM     40  C   LIG d   1       4.470  -2.679  -5.186  0.00  0.00     0.028 C 
ATOM     41  H   LIG d   1       4.479  -4.548  -6.286  0.00  0.00     0.048 H 
ATOM     42  H   LIG d   1       6.032  -3.648  -6.339  0.00  0.00     0.048 H 
ATOM     43  N   LIG d   1       4.963  -1.307  -5.374  0.00  0.00    -0.324 NA
ATOM     44  H   LIG d   1       4.867  -3.085  -4.243  0.00  0.00     0.048 H 
ATOM     45  H   LIG d   1       3.371  -2.672  -5.147  0.00  0.00     0.048 H 
ATOM     46  C   LIG d   1       4.396  -0.699  -6.585  0.00  0.00     0.028 C 
ATOM     47  H   LIG d   1       4.738   0.343  -6.669  0.00  0.00     0.048 H 
ATOM     48  H   LIG d   1       3.299  -0.723  -6.531  0.00  0.00     0.048 H 
ATOM     49  H   LIG d   1       5.955  -1.393  -7.936  0.00  0.00     0.048 H 
ATOM     50  H   LIG d   1       4.362  -1.119  -8.720  0.00  0.00     0.048 H 
BRANCH  43  51
ATOM     51  C   LIG d   1       4.698  -0.521  -4.247  0.00  0.00     0.072 A 
ATOM     52  C   LIG d   1       5.701   0.276  -3.698  0.00  0.00     0.141 A 
ATOM     53  C   LIG d   1       5.431   1.052  -2.583  0.00  0.00    -0.018 A 
ATOM     54  C   LIG d   1       4.170   1.036  -2.017  0.00  0.00    -0.058 A 
ATOM     55  H   LIG d   1       6.207   1.670  -2.156  0.00  0.00     0.066 H 
ATOM     56  C   LIG d   1       3.174   0.247  -2.562  0.00  0.00    -0.060 A 
ATOM     57  H   LIG d   1       3.963   1.642  -1.148  0.00  0.00     0.062 H 
ATOM     58  C   LIG d   1       3.433  -0.528  -3.677  0.00  0.00    -0.037 A 
ATOM     59  H   LIG d   1       2.190   0.238  -2.116  0.00  0.00     0.062 H 
ATOM     60  H   LIG d   1       2.652  -1.141  -4.102  0.00  0.00     0.064 H 
BRANCH  52  61
ATOM     61  O   LIG d   1       6.940   0.292  -4.257  0.00  0.00    -0.493 OA
BRANCH  61  62
ATOM     62  C   LIG d   1       7.783   1.398  -3.932  0.00  0.00     0.079 C 
ATOM     63  H   LIG d   1       7.312   1.999  -3.141  0.00  0.00     0.066 H 
ATOM     64  H   LIG d   1       7.932   2.022  -4.826  0.00  0.00     0.066 H 
ATOM     65  H   LIG d   1       8.757   1.027  -3.578  0.00  0.00     0.066 H 
ENDBRANCH  61  62
ENDBRANCH  52  61
ENDBRANCH  43  51
ENDBRANCH   1  35
TORSDOF 11
ENDMDL
MODEL 3
REMARK VINA RESULT:      -5.8      2.318      3.115
REMARK  11 active torsions:
REMARK  status: ('A' for Active; 'I' for Inactive)
REMARK    1  A    between atoms: C_1  and  C_2 
REMARK    2  A    between atoms: C_4  and  C_31 
REMARK    3  A    between atoms: C_6  and  C_28 
REMARK    4  A    between atoms: C_9  and  C_11 
REMARK    5  A    between atoms: C_11  and  C_12 
REMARK       I    between atoms: C_12  and  N_14 
REMARK    6  A    between atoms: N_17  and  C_20 
REMARK    7  A    between atoms: C_25  and  O_26 
REMARK    8  A    between atoms: O_26  and  C_27 
REMARK    9  A    between atoms: C_28  and  C_29 
REMARK   10  A    between atoms: C_28  and  C_30 
REMARK   11  A    between atoms: C_31  and  O_32 
ROOT
ATOM      1  C   LIG d   1       6.472  -6.932  -5.354  0.00  0.00     0.031 C 
ATOM      2  H   LIG d   1       5.838  -6.806  -6.244  0.00  0.00     0.036 H 
ATOM      3  H   LIG d   1       5.841  -6.957  -4.453  0.00  0.00     0.036 H 
ENDROOT
BRANCH   1   4
ATOM      4  C   LIG d   1       7.252  -8.244  -5.465  0.00  0.00    -0.012 C 
ATOM      5  C   LIG d   1       7.141  -9.001  -4.174  0.00  0.00    -0.073 C 
ATOM      6  C   LIG d   1       6.366 -10.023  -3.997  0.00  0.00    -0.079 C 
ATOM      7  C   LIG d   1       5.480 -10.600  -5.060  0.00  0.00     0.004 C 
ATOM      8  H   LIG d   1       6.333 -10.523  -3.018  0.00  0.00     0.058 H 
ATOM      9  H   LIG d   1       5.960 -11.511  -5.447  0.00  0.00     0.037 H 
ATOM     10  C   LIG d   1       5.298  -9.594  -6.198  0.00  0.00    -0.030 C 
ATOM     11  H   LIG d   1       4.664  -8.759  -5.866  0.00  0.00     0.031 H 
ATOM     12  C   LIG d   1       6.680  -9.077  -6.615  0.00  0.00    -0.042 C 
ATOM     13  H   LIG d   1       7.342  -9.930  -6.826  0.00  0.00     0.027 H 
ATOM     14  H   LIG d   1       6.583  -8.456  -7.517  0.00  0.00     0.027 H 
ATOM     15  H   LIG d   1       8.317  -8.042  -5.651  0.00  0.00     0.035 H 
BRANCH   5  16
ATOM     16  C   LIG d   1       7.982  -8.542  -3.012  0.00  0.00    -0.043 C 
ATOM     17  H   LIG d   1       8.288  -9.412  -2.413  0.00  0.00     0.027 H 
ATOM     18  H   LIG d   1       7.399  -7.852  -2.384  0.00  0.00     0.027 H 
ATOM     19  H   LIG d   1       8.878  -8.024  -3.389  0.00  0.00     0.027 H 
ENDBRANCH   5  16
BRANCH   7  20
ATOM     20  C   LIG d   1       4.114 -10.934  -4.455  0.00  0.00     0.051 C 
ATOM     21  H   LIG d   1       3.487 -11.425  -5.215  0.00  0.00     0.056 H 
ATOM     22  H   LIG d   1       4.248 -11.610  -3.598  0.00  0.00     0.056 H 
BRANCH  20  23
ATOM     23  O   LIG d   1       3.479  -9.731  -4.019  0.00  0.00    -0.394 OA
ATOM     24  H   LIG d   1       3.113  -9.003  -4.758  0.00  0.00     0.209 HD
ENDBRANCH  20  23
ENDBRANCH   7  20
BRANCH  10  25
ATOM     25  C   LIG d   1       4.625 -10.280  -7.389  0.00  0.00    -0.043 C 
ATOM     26  H   LIG d   1       3.688 -10.753  -7.058  0.00  0.00     0.030 H 
BRANCH  25  27
ATOM     27  C   LIG d   1       4.318  -9.241  -8.469  0.00  0.00    -0.062 C 
ATOM     28  H   LIG d   1       5.259  -8.819  -8.851  0.00  0.00     0.023 H 
ATOM     29  H   LIG d   1       3.703  -8.436  -8.039  0.00  0.00     0.023 H 
ATOM     30  H   LIG d   1       3.770  -9.721  -9.294  0.00  0.00     0.023 H 
ENDBRANCH  25  27
BRANCH  25  31
ATOM     31  C   LIG d   1       5.561 -11.347  -7.958  0.00  0.00    -0.062 C 
ATOM     32  H   LIG d   1       6.065 -10.954  -8.854  0.00  0.00     0.023 H 
ATOM     33  H   LIG d   1       4.979 -12.240  -8.228  0.00  0.00     0.023 H 
ATOM     34  H   LIG d   1       6.315 -11.615  -7.203  0.00  0.00     0.023 H 
ENDBRANCH  25  31
ENDBRANCH  10  25
ENDBRANCH   1   4
BRANCH   1  35
ATOM     35  C   LIG d   1       7.439  -5.780  -5.258  0.00  0.00     0.216 C 
ATOM     36  O   LIG d   1       8.626  -5.993  -5.135  0.00  0.00    -0.276 OA
ATOM     37  N   LIG d   1       6.983  -4.513  -5.309  0.00  0.00    -0.298 N 
ATOM     38  C   LIG d   1       7.909  -3.373  -5.218  0.00  0.00     0.030 C 
ATOM     39  C   LIG d   1       5.548  -4.231  -5.464  0.00  0.00     0.030 C 
ATOM     40  C   LIG d   1       7.399  -2.416  -4.136  0.00  0.00     0.028 C 
ATOM     41  H   LIG d   1       8.914  -3.737  -4.954  0.00  0.00     0.048 H 
ATOM     42  H   LIG d   1       7.951  -2.856  -6.188  0.00  0.00     0.048 H 
ATOM     43  N   LIG d   1       6.002  -2.060  -4.421  0.00  0.00    -0.324 NA
ATOM     44  H   LIG d   1       8.016  -1.505  -4.130  0.00  0.00     0.048 H 
ATOM     45  H   LIG d   1       7.459  -2.906  -3.154  0.00  0.00     0.048 H 
ATOM     46  C   LIG d   1       5.130  -3.241  -4.366  0.00  0.00     0.028 C 
ATOM     47  H   LIG d   1       4.085  -2.935  -4.528  0.00  0.00     0.048 H 
ATOM     48  H   LIG d   1       5.223  -3.723  -3.383  0.00  0.00     0.048 H 
ATOM     49  H   LIG d   1       5.365  -3.795  -6.457  0.00  0.00     0.048 H 
ATOM     50  H   LIG d   1       4.979  -5.167  -5.365  0.00  0.00     0.048 H 
BRANCH  43  51
ATOM     51  C   LIG d   1       5.552  -1.062  -3.550  0.00  0.00     0.072 A 
ATOM     52  C   LIG d   1       5.880   0.271  -3.785  0.00  0.00     0.141 A 
ATOM     53  C   LIG d   1       5.431   1.254  -2.919  0.00  0.00    -0.018 A 
ATOM     54  C   LIG d   1       4.658   0.913  -1.825  0.00  0.00    -0.058 A 
ATOM     55  H   LIG d   1       5.684   2.289  -3.099  0.00  0.00     0.066 H 
ATOM     56  C   LIG d   1       4.331  -0.410  -1.592  0.00  0.00    -0.060 A 
ATOM     57  H   LIG d   1       4.309   1.680  -1.151  0.00  0.00     0.062 H 
ATOM     58  C   LIG d   1       4.771  -1.398  -2.453  0.00  0.00    -0.037 A 
ATOM     59  H   LIG d   1       3.726  -0.673  -0.736  0.00  0.00     0.062 H 
ATOM     60  H   LIG d   1       4.511  -2.430  -2.270  0.00  0.00     0.064 H 
BRANCH  52  61
ATOM     61  O   LIG d   1       6.639   0.607  -4.862  0.00  0.00    -0.493 OA
BRANCH  61  62
ATOM     62  C   LIG d   1       7.859   1.304  -4.604  0.00  0.00     0.079 C 
ATOM     63  H   LIG d   1       7.825   2.293  -5.084  0.00  0.00     0.066 H 
ATOM     64  H   LIG d   1       8.704   0.730  -5.010  0.00  0.00     0.066 H 
ATOM     65  H   LIG d   1       7.989   1.429  -3.519  0.00  0.00     0.066 H 
ENDBRANCH  61  62
ENDBRANCH  52  61
ENDBRANCH  43  51
ENDBRANCH   1  35
TORSDOF 11
ENDMDL
MODEL 4
REMARK VINA RESULT:      -5.7      4.590      7.147
REMARK  11 active torsions:
REMARK  status: ('A' for Active; 'I' for Inactive)
REMARK    1  A    between atoms: C_1  and  C_2 
REMARK    2  A    between atoms: C_4  and  C_31 
REMARK    3  A    between atoms: C_6  and  C_28 
REMARK    4  A    between atoms: C_9  and  C_11 
REMARK    5  A    between atoms: C_11  and  C_12 
REMARK       I    between atoms: C_12  and  N_14 
REMARK    6  A    between atoms: N_17  and  C_20 
REMARK    7  A    between atoms: C_25  and  O_26 
REMARK    8  A    between atoms: O_26  and  C_27 
REMARK    9  A    between atoms: C_28  and  C_29 
REMARK   10  A    between atoms: C_28  and  C_30 
REMARK   11  A    between atoms: C_31  and  O_32 
ROOT
ATOM      1  C   LIG d   1       5.929  -0.448  -4.448  0.00  0.00     0.031 C 
ATOM      2  H   LIG d   1       6.385  -0.685  -5.421  0.00  0.00     0.036 H 
ATOM      3  H   LIG d   1       4.882  -0.145  -4.596  0.00  0.00     0.036 H 
ENDROOT
BRANCH   1   4
ATOM      4  C   LIG d   1       5.978  -1.686  -3.549  0.00  0.00    -0.012 C 
ATOM      5  C   LIG d   1       4.627  -2.340  -3.528  0.00  0.00    -0.073 C 
ATOM      6  C   LIG d   1       4.332  -3.413  -4.190  0.00  0.00    -0.079 C 
ATOM      7  C   LIG d   1       5.300  -4.157  -5.061  0.00  0.00     0.004 C 
ATOM      8  H   LIG d   1       3.316  -3.831  -4.132  0.00  0.00     0.058 H 
ATOM      9  H   LIG d   1       5.638  -5.047  -4.511  0.00  0.00     0.037 H 
ATOM     10  C   LIG d   1       6.502  -3.270  -5.391  0.00  0.00    -0.030 C 
ATOM     11  H   LIG d   1       6.204  -2.474  -6.089  0.00  0.00     0.031 H 
ATOM     12  C   LIG d   1       7.028  -2.661  -4.086  0.00  0.00    -0.042 C 
ATOM     13  H   LIG d   1       7.206  -3.462  -3.353  0.00  0.00     0.027 H 
ATOM     14  H   LIG d   1       7.970  -2.129  -4.282  0.00  0.00     0.027 H 
ATOM     15  H   LIG d   1       6.233  -1.400  -2.517  0.00  0.00     0.035 H 
BRANCH   5  16
ATOM     16  C   LIG d   1       3.550  -1.709  -2.687  0.00  0.00    -0.043 C 
ATOM     17  H   LIG d   1       3.512  -0.629  -2.887  0.00  0.00     0.027 H 
ATOM     18  H   LIG d   1       3.769  -1.877  -1.622  0.00  0.00     0.027 H 
ATOM     19  H   LIG d   1       2.577  -2.162  -2.936  0.00  0.00     0.027 H 
ENDBRANCH   5  16
BRANCH   7  20
ATOM     20  C   LIG d   1       4.602  -4.568  -6.360  0.00  0.00     0.051 C 
ATOM     21  H   LIG d   1       4.529  -3.696  -7.028  0.00  0.00     0.056 H 
ATOM     22  H   LIG d   1       5.182  -5.361  -6.853  0.00  0.00     0.056 H 
BRANCH  20  23
ATOM     23  O   LIG d   1       3.291  -5.052  -6.063  0.00  0.00    -0.394 OA
ATOM     24  H   LIG d   1       2.882  -4.944  -5.047  0.00  0.00     0.209 HD
ENDBRANCH  20  23
ENDBRANCH   7  20
BRANCH  10  25
ATOM     25  C   LIG d   1       7.600  -4.113  -6.044  0.00  0.00    -0.043 C 
ATOM     26  H   LIG d   1       7.189  -4.631  -6.924  0.00  0.00     0.030 H 
BRANCH  25  27
ATOM     27  C   LIG d   1       8.751  -3.203  -6.478  0.00  0.00    -0.062 C 
ATOM     28  H   LIG d   1       9.320  -3.690  -7.284  0.00  0.00     0.023 H 
ATOM     29  H   LIG d   1       9.415  -3.018  -5.621  0.00  0.00     0.023 H 
ATOM     30  H   LIG d   1       8.345  -2.247  -6.842  0.00  0.00     0.023 H 
ENDBRANCH  25  27
BRANCH  25  31
ATOM     31  C   LIG d   1       8.116  -5.145  -5.040  0.00  0.00    -0.062 C 
ATOM     32  H   LIG d   1       7.568  -6.090  -5.170  0.00  0.00     0.023 H 
ATOM     33  H   LIG d   1       7.963  -4.770  -4.017  0.00  0.00     0.023 H 
ATOM     34  H   LIG d   1       9.189  -5.317  -5.210  0.00  0.00     0.023 H 
ENDBRANCH  25  31
ENDBRANCH  10  25
ENDBRANCH   1   4
BRANCH   1  35
ATOM     35  C   LIG d   1       6.691   0.676  -3.797  0.00  0.00     0.216 C 
ATOM     36  O   LIG d   1       6.246   1.217  -2.806  0.00  0.00    -0.276 OA
ATOM     37  N   LIG d   1       7.867   1.082  -4.314  0.00  0.00    -0.298 N 
ATOM     38  C   LIG d   1       8.627   2.178  -3.694  0.00  0.00     0.030 C 
ATOM     39  C   LIG d   1       8.429   0.437  -5.510  0.00  0.00     0.030 C 
ATOM     40  C   LIG d   1       8.979   3.202  -4.778  0.00  0.00     0.028 C 
ATOM     41  H   LIG d   1       8.015   2.654  -2.913  0.00  0.00     0.048 H 
ATOM     42  H   LIG d   1       9.547   1.777  -3.243  0.00  0.00     0.048 H 
ATOM     43  N   LIG d   1       9.663   2.521  -5.887  0.00  0.00    -0.324 NA
ATOM     44  H   LIG d   1       9.641   3.972  -4.356  0.00  0.00     0.048 H 
ATOM     45  H   LIG d   1       8.058   3.674  -5.150  0.00  0.00     0.048 H 
ATOM     46  C   LIG d   1       8.785   1.533  -6.527  0.00  0.00     0.028 C 
ATOM     47  H   LIG d   1       9.303   1.081  -7.386  0.00  0.00     0.048 H 
ATOM     48  H   LIG d   1       7.865   2.026  -6.872  0.00  0.00     0.048 H 
ATOM     49  H   LIG d   1       9.330  -0.129  -5.233  0.00  0.00     0.048 H 
ATOM     50  H   LIG d   1       7.684  -0.249  -5.940  0.00  0.00     0.048 H 
BRANCH  43  51
ATOM     51  C   LIG d   1      10.145   3.445  -6.821  0.00  0.00     0.072 A 
ATOM     52  C   LIG d   1      11.439   3.948  -6.702  0.00  0.00     0.141 A 
ATOM     53  C   LIG d   1      11.910   4.861  -7.630  0.00  0.00    -0.018 A 
ATOM     54  C   LIG d   1      11.098   5.272  -8.672  0.00  0.00    -0.058 A 
ATOM     55  H   LIG d   1      12.913   5.253  -7.542  0.00  0.00     0.066 H 
ATOM     56  C   LIG d   1       9.814   4.772  -8.790  0.00  0.00    -0.060 A 
ATOM     57  H   LIG d   1      11.467   5.984  -9.394  0.00  0.00     0.062 H 
ATOM     58  C   LIG d   1       9.337   3.857  -7.870  0.00  0.00    -0.037 A 
ATOM     59  H   LIG d   1       9.184   5.096  -9.605  0.00  0.00     0.062 H 
ATOM     60  H   LIG d   1       8.335   3.466  -7.968  0.00  0.00     0.064 H 
BRANCH  52  61
ATOM     61  O   LIG d   1      12.237   3.543  -5.679  0.00  0.00    -0.493 OA
BRANCH  61  62
ATOM     62  C   LIG d   1      12.561   4.515  -4.684  0.00  0.00     0.079 C 
ATOM     63  H   LIG d   1      11.900   5.388  -4.795  0.00  0.00     0.066 H 
ATOM     64  H   LIG d   1      13.607   4.831  -4.805  0.00  0.00     0.066 H 
ATOM     65  H   LIG d   1      12.423   4.078  -3.684  0.00  0.00     0.066 H 
ENDBRANCH  61  62
ENDBRANCH  52  61
ENDBRANCH  43  51
ENDBRANCH   1  35
TORSDOF 11
ENDMDL
MODEL 5
REMARK VINA RESULT:      -5.7      4.451      8.216
REMARK  11 active torsions:
REMARK  status: ('A' for Active; 'I' for Inactive)
REMARK    1  A    between atoms: C_1  and  C_2 
REMARK    2  A    between atoms: C_4  and  C_31 
REMARK    3  A    between atoms: C_6  and  C_28 
REMARK    4  A    between atoms: C_9  and  C_11 
REMARK    5  A    between atoms: C_11  and  C_12 
REMARK       I    between atoms: C_12  and  N_14 
REMARK    6  A    between atoms: N_17  and  C_20 
REMARK    7  A    between atoms: C_25  and  O_26 
REMARK    8  A    between atoms: O_26  and  C_27 
REMARK    9  A    between atoms: C_28  and  C_29 
REMARK   10  A    between atoms: C_28  and  C_30 
REMARK   11  A    between atoms: C_31  and  O_32 
ROOT
ATOM      1  C   LIG d   1       3.797  -0.922  -5.065  0.00  0.00     0.031 C 
ATOM      2  H   LIG d   1       4.450  -1.616  -5.615  0.00  0.00     0.036 H 
ATOM      3  H   LIG d   1       2.915  -1.464  -4.691  0.00  0.00     0.036 H 
ENDROOT
BRANCH   1   4
ATOM      4  C   LIG d   1       4.567  -0.327  -3.884  0.00  0.00    -0.012 C 
ATOM      5  C   LIG d   1       4.936  -1.423  -2.927  0.00  0.00    -0.073 C 
ATOM      6  C   LIG d   1       6.121  -1.935  -2.834  0.00  0.00    -0.079 C 
ATOM      7  C   LIG d   1       7.293  -1.498  -3.661  0.00  0.00     0.004 C 
ATOM      8  H   LIG d   1       6.315  -2.742  -2.113  0.00  0.00     0.058 H 
ATOM      9  H   LIG d   1       7.933  -0.859  -3.034  0.00  0.00     0.037 H 
ATOM     10  C   LIG d   1       6.813  -0.705  -4.878  0.00  0.00    -0.030 C 
ATOM     11  H   LIG d   1       6.323  -1.377  -5.597  0.00  0.00     0.031 H 
ATOM     12  C   LIG d   1       5.828   0.369  -4.400  0.00  0.00    -0.042 C 
ATOM     13  H   LIG d   1       6.290   0.957  -3.593  0.00  0.00     0.027 H 
ATOM     14  H   LIG d   1       5.575   1.034  -5.238  0.00  0.00     0.027 H 
ATOM     15  H   LIG d   1       3.940   0.399  -3.344  0.00  0.00     0.035 H 
BRANCH   5  16
ATOM     16  C   LIG d   1       3.860  -1.960  -2.020  0.00  0.00    -0.043 C 
ATOM     17  H   LIG d   1       3.389  -2.836  -2.488  0.00  0.00     0.027 H 
ATOM     18  H   LIG d   1       3.101  -1.183  -1.848  0.00  0.00     0.027 H 
ATOM     19  H   LIG d   1       4.306  -2.255  -1.057  0.00  0.00     0.027 H 
ENDBRANCH   5  16
BRANCH   7  20
ATOM     20  C   LIG d   1       8.069  -2.730  -4.133  0.00  0.00     0.051 C 
ATOM     21  H   LIG d   1       7.360  -3.510  -4.448  0.00  0.00     0.056 H 
ATOM     22  H   LIG d   1       8.713  -2.456  -4.981  0.00  0.00     0.056 H 
BRANCH  20  23
ATOM     23  O   LIG d   1       8.875  -3.223  -3.062  0.00  0.00    -0.394 OA
ATOM     24  H   LIG d   1       9.961  -3.341  -3.200  0.00  0.00     0.209 HD
ENDBRANCH  20  23
ENDBRANCH   7  20
BRANCH  10  25
ATOM     25  C   LIG d   1       8.008  -0.038  -5.562  0.00  0.00    -0.043 C 
ATOM     26  H   LIG d   1       8.774  -0.796  -5.784  0.00  0.00     0.030 H 
BRANCH  25  27
ATOM     27  C   LIG d   1       7.549   0.619  -6.866  0.00  0.00    -0.062 C 
ATOM     28  H   LIG d   1       8.095   0.177  -7.712  0.00  0.00     0.023 H 
ATOM     29  H   LIG d   1       7.752   1.700  -6.823  0.00  0.00     0.023 H 
ATOM     30  H   LIG d   1       6.469   0.453  -6.999  0.00  0.00     0.023 H 
ENDBRANCH  25  27
BRANCH  25  31
ATOM     31  C   LIG d   1       8.598   1.026  -4.635  0.00  0.00    -0.062 C 
ATOM     32  H   LIG d   1       9.601   1.307  -4.990  0.00  0.00     0.023 H 
ATOM     33  H   LIG d   1       8.670   0.624  -3.614  0.00  0.00     0.023 H 
ATOM     34  H   LIG d   1       7.948   1.914  -4.634  0.00  0.00     0.023 H 
ENDBRANCH  25  31
ENDBRANCH  10  25
ENDBRANCH   1   4
BRANCH   1  35
ATOM     35  C   LIG d   1       3.353   0.186  -5.984  0.00  0.00     0.216 C 
ATOM     36  O   LIG d   1       2.764   1.146  -5.536  0.00  0.00    -0.276 OA
ATOM     37  N   LIG d   1       3.610   0.109  -7.305  0.00  0.00    -0.298 N 
ATOM     38  C   LIG d   1       3.186   1.179  -8.220  0.00  0.00     0.030 C 
ATOM     39  C   LIG d   1       4.328  -1.043  -7.869  0.00  0.00     0.030 C 
ATOM     40  C   LIG d   1       2.418   0.548  -9.386  0.00  0.00     0.028 C 
ATOM     41  H   LIG d   1       2.536   1.886  -7.682  0.00  0.00     0.048 H 
ATOM     42  H   LIG d   1       4.071   1.712  -8.598  0.00  0.00     0.048 H 
ATOM     43  N   LIG d   1       3.242  -0.504  -9.999  0.00  0.00    -0.324 NA
ATOM     44  H   LIG d   1       2.188   1.319 -10.137  0.00  0.00     0.048 H 
ATOM     45  H   LIG d   1       1.481   0.109  -9.014  0.00  0.00     0.048 H 
ATOM     46  C   LIG d   1       3.510  -1.591  -9.049  0.00  0.00     0.028 C 
ATOM     47  H   LIG d   1       4.080  -2.387  -9.551  0.00  0.00     0.048 H 
ATOM     48  H   LIG d   1       2.559  -1.999  -8.677  0.00  0.00     0.048 H 
ATOM     49  H   LIG d   1       5.322  -0.723  -8.214  0.00  0.00     0.048 H 
ATOM     50  H   LIG d   1       4.441  -1.818  -7.096  0.00  0.00     0.048 H 
BRANCH  43  51
ATOM     51  C   LIG d   1       2.645  -0.992 -11.166  0.00  0.00     0.072 A 
ATOM     52  C   LIG d   1       3.390  -1.107 -12.337  0.00  0.00     0.141 A 
ATOM     53  C   LIG d   1       2.793  -1.591 -13.489  0.00  0.00    -0.018 A 
ATOM     54  C   LIG d   1       1.460  -1.960 -13.475  0.00  0.00    -0.058 A 
ATOM     55  H   LIG d   1       3.368  -1.682 -14.399  0.00  0.00     0.066 H 
ATOM     56  C   LIG d   1       0.721  -1.847 -12.313  0.00  0.00    -0.060 A 
ATOM     57  H   LIG d   1       0.997  -2.337 -14.374  0.00  0.00     0.062 H 
ATOM     58  C   LIG d   1       1.310  -1.369 -11.158  0.00  0.00    -0.037 A 
ATOM     59  H   LIG d   1      -0.321  -2.137 -12.307  0.00  0.00     0.062 H 
ATOM     60  H   LIG d   1       0.730  -1.285 -10.251  0.00  0.00     0.064 H 
BRANCH  52  61
ATOM     61  O   LIG d   1       4.701  -0.745 -12.350  0.00  0.00    -0.493 OA
BRANCH  61  62
ATOM     62  C   LIG d   1       5.387  -0.835 -13.599  0.00  0.00     0.079 C 
ATOM     63  H   LIG d   1       5.201   0.076 -14.187  0.00  0.00     0.066 H 
ATOM     64  H   LIG d   1       5.022  -1.710 -14.157  0.00  0.00     0.066 H 
ATOM     65  H   LIG d   1       6.467  -0.940 -13.419  0.00  0.00     0.066 H 
ENDBRANCH  61  62
ENDBRANCH  52  61
ENDBRANCH  43  51
ENDBRANCH   1  35
TORSDOF 11
ENDMDL
MODEL 6
REMARK VINA RESULT:      -5.7      4.988      8.309
REMARK  11 active torsions:
REMARK  status: ('A' for Active; 'I' for Inactive)
REMARK    1  A    between atoms: C_1  and  C_2 
REMARK    2  A    between atoms: C_4  and  C_31 
REMARK    3  A    between atoms: C_6  and  C_28 
REMARK    4  A    between atoms: C_9  and  C_11 
REMARK    5  A    between atoms: C_11  and  C_12 
REMARK       I    between atoms: C_12  and  N_14 
REMARK    6  A    between atoms: N_17  and  C_20 
REMARK    7  A    between atoms: C_25  and  O_26 
REMARK    8  A    between atoms: O_26  and  C_27 
REMARK    9  A    between atoms: C_28  and  C_29 
REMARK   10  A    between atoms: C_28  and  C_30 
REMARK   11  A    between atoms: C_31  and  O_32 
ROOT
ATOM      1  C   LIG d   1       7.194  -0.482  -4.820  0.00  0.00     0.031 C 
ATOM      2  H   LIG d   1       6.772   0.111  -3.995  0.00  0.00     0.036 H 
ATOM      3  H   LIG d   1       7.915  -1.210  -4.418  0.00  0.00     0.036 H 
ENDROOT
BRANCH   1   4
ATOM      4  C   LIG d   1       6.068  -1.227  -5.540  0.00  0.00    -0.012 C 
ATOM      5  C   LIG d   1       5.927  -2.602  -4.957  0.00  0.00    -0.073 C 
ATOM      6  C   LIG d   1       4.990  -2.947  -4.132  0.00  0.00    -0.079 C 
ATOM      7  C   LIG d   1       3.909  -2.023  -3.655  0.00  0.00     0.004 C 
ATOM      8  H   LIG d   1       4.955  -3.973  -3.740  0.00  0.00     0.058 H 
ATOM      9  H   LIG d   1       2.988  -2.263  -4.207  0.00  0.00     0.037 H 
ATOM     10  C   LIG d   1       4.303  -0.569  -3.920  0.00  0.00    -0.030 C 
ATOM     11  H   LIG d   1       5.113  -0.268  -3.240  0.00  0.00     0.031 H 
ATOM     12  C   LIG d   1       4.760  -0.448  -5.378  0.00  0.00    -0.042 C 
ATOM     13  H   LIG d   1       3.990  -0.868  -6.041  0.00  0.00     0.027 H 
ATOM     14  H   LIG d   1       4.920   0.611  -5.627  0.00  0.00     0.027 H 
ATOM     15  H   LIG d   1       6.303  -1.334  -6.610  0.00  0.00     0.035 H 
BRANCH   5  16
ATOM     16  C   LIG d   1       6.939  -3.645  -5.353  0.00  0.00    -0.043 C 
ATOM     17  H   LIG d   1       7.813  -3.580  -4.689  0.00  0.00     0.027 H 
ATOM     18  H   LIG d   1       7.255  -3.475  -6.393  0.00  0.00     0.027 H 
ATOM     19  H   LIG d   1       6.487  -4.646  -5.267  0.00  0.00     0.027 H 
ENDBRANCH   5  16
BRANCH   7  20
ATOM     20  C   LIG d   1       3.697  -2.225  -2.152  0.00  0.00     0.051 C 
ATOM     21  H   LIG d   1       2.678  -1.910  -1.881  0.00  0.00     0.056 H 
ATOM     22  H   LIG d   1       3.831  -3.288  -1.903  0.00  0.00     0.056 H 
BRANCH  20  23
ATOM     23  O   LIG d   1       4.647  -1.442  -1.428  0.00  0.00    -0.394 OA
ATOM     24  H   LIG d   1       5.544  -1.919  -1.004  0.00  0.00     0.209 HD
ENDBRANCH  20  23
ENDBRANCH   7  20
BRANCH  10  25
ATOM     25  C   LIG d   1       3.096   0.342  -3.683  0.00  0.00    -0.043 C 
ATOM     26  H   LIG d   1       2.351  -0.188  -3.070  0.00  0.00     0.030 H 
BRANCH  25  27
ATOM     27  C   LIG d   1       3.549   1.608  -2.953  0.00  0.00    -0.062 C 
ATOM     28  H   LIG d   1       4.590   1.838  -3.227  0.00  0.00     0.023 H 
ATOM     29  H   LIG d   1       3.483   1.448  -1.866  0.00  0.00     0.023 H 
ATOM     30  H   LIG d   1       2.900   2.449  -3.241  0.00  0.00     0.023 H 
ENDBRANCH  25  27
BRANCH  25  31
ATOM     31  C   LIG d   1       2.473   0.723  -5.027  0.00  0.00    -0.062 C 
ATOM     32  H   LIG d   1       1.390   0.537  -4.996  0.00  0.00     0.023 H 
ATOM     33  H   LIG d   1       2.927   0.119  -5.826  0.00  0.00     0.023 H 
ATOM     34  H   LIG d   1       2.656   1.790  -5.226  0.00  0.00     0.023 H 
ENDBRANCH  25  31
ENDBRANCH  10  25
ENDBRANCH   1   4
BRANCH   1  35
ATOM     35  C   LIG d   1       7.893   0.433  -5.791  0.00  0.00     0.216 C 
ATOM     36  O   LIG d   1       8.076   0.077  -6.936  0.00  0.00    -0.276 OA
ATOM     37  N   LIG d   1       8.316   1.647  -5.388  0.00  0.00    -0.298 N 
ATOM     38  C   LIG d   1       9.000   2.557  -6.319  0.00  0.00     0.030 C 
ATOM     39  C   LIG d   1       8.100   2.102  -4.006  0.00  0.00     0.030 C 
ATOM     40  C   LIG d   1      10.303   3.032  -5.668  0.00  0.00     0.028 C 
ATOM     41  H   LIG d   1       9.222   2.024  -7.256  0.00  0.00     0.048 H 
ATOM     42  H   LIG d   1       8.352   3.419  -6.534  0.00  0.00     0.048 H 
ATOM     43  N   LIG d   1      10.006   3.604  -4.347  0.00  0.00    -0.324 NA
ATOM     44  H   LIG d   1      10.774   3.798  -6.302  0.00  0.00     0.048 H 
ATOM     45  H   LIG d   1      10.989   2.180  -5.553  0.00  0.00     0.048 H 
ATOM     46  C   LIG d   1       9.443   2.592  -3.443  0.00  0.00     0.028 C 
ATOM     47  H   LIG d   1       9.284   3.034  -2.449  0.00  0.00     0.048 H 
ATOM     48  H   LIG d   1      10.138   1.743  -3.361  0.00  0.00     0.048 H 
ATOM     49  H   LIG d   1       7.366   2.921  -4.000  0.00  0.00     0.048 H 
ATOM     50  H   LIG d   1       7.720   1.265  -3.401  0.00  0.00     0.048 H 
BRANCH  43  51
ATOM     51  C   LIG d   1      11.145   4.196  -3.790  0.00  0.00     0.072 A 
ATOM     52  C   LIG d   1      11.086   5.498  -3.297  0.00  0.00     0.141 A 
ATOM     53  C   LIG d   1      12.217   6.078  -2.747  0.00  0.00    -0.018 A 
ATOM     54  C   LIG d   1      13.401   5.366  -2.687  0.00  0.00    -0.058 A 
ATOM     55  H   LIG d   1      12.174   7.087  -2.364  0.00  0.00     0.066 H 
ATOM     56  C   LIG d   1      13.460   4.074  -3.175  0.00  0.00    -0.060 A 
ATOM     57  H   LIG d   1      14.281   5.821  -2.258  0.00  0.00     0.062 H 
ATOM     58  C   LIG d   1      12.335   3.486  -3.722  0.00  0.00    -0.037 A 
ATOM     59  H   LIG d   1      14.387   3.522  -3.126  0.00  0.00     0.062 H 
ATOM     60  H   LIG d   1      12.383   2.475  -4.099  0.00  0.00     0.064 H 
BRANCH  52  61
ATOM     61  O   LIG d   1       9.921   6.197  -3.356  0.00  0.00    -0.493 OA
BRANCH  61  62
ATOM     62  C   LIG d   1       9.467   6.803  -2.145  0.00  0.00     0.079 C 
ATOM     63  H   LIG d   1      10.218   6.652  -1.355  0.00  0.00     0.066 H 
ATOM     64  H   LIG d   1       8.516   6.345  -1.838  0.00  0.00     0.066 H 
ATOM     65  H   LIG d   1       9.319   7.881  -2.307  0.00  0.00     0.066 H 
ENDBRANCH  61  62
ENDBRANCH  52  61
ENDBRANCH  43  51
ENDBRANCH   1  35
TORSDOF 11
ENDMDL
MODEL 7
REMARK VINA RESULT:      -5.7      5.025      8.663
REMARK  11 active torsions:
REMARK  status: ('A' for Active; 'I' for Inactive)
REMARK    1  A    between atoms: C_1  and  C_2 
REMARK    2  A    between atoms: C_4  and  C_31 
REMARK    3  A    between atoms: C_6  and  C_28 
REMARK    4  A    between atoms: C_9  and  C_11 
REMARK    5  A    between atoms: C_11  and  C_12 
REMARK       I    between atoms: C_12  and  N_14 
REMARK    6  A    between atoms: N_17  and  C_20 
REMARK    7  A    between atoms: C_25  and  O_26 
REMARK    8  A    between atoms: O_26  and  C_27 
REMARK    9  A    between atoms: C_28  and  C_29 
REMARK   10  A    between atoms: C_28  and  C_30 
REMARK   11  A    between atoms: C_31  and  O_32 
ROOT
ATOM      1  C   LIG d   1       3.011  -3.645  -9.289  0.00  0.00     0.031 C 
ATOM      2  H   LIG d   1       2.801  -2.566  -9.233  0.00  0.00     0.036 H 
ATOM      3  H   LIG d   1       2.067  -4.206  -9.234  0.00  0.00     0.036 H 
ENDROOT
BRANCH   1   4
ATOM      4  C   LIG d   1       3.713  -3.959 -10.612  0.00  0.00    -0.012 C 
ATOM      5  C   LIG d   1       2.774  -4.715 -11.507  0.00  0.00    -0.073 C 
ATOM      6  C   LIG d   1       2.146  -4.187 -12.508  0.00  0.00    -0.079 C 
ATOM      7  C   LIG d   1       2.276  -2.751 -12.920  0.00  0.00     0.004 C 
ATOM      8  H   LIG d   1       1.467  -4.803 -13.116  0.00  0.00     0.058 H 
ATOM      9  H   LIG d   1       2.934  -2.708 -13.800  0.00  0.00     0.037 H 
ATOM     10  C   LIG d   1       2.885  -1.929 -11.783  0.00  0.00    -0.030 C 
ATOM     11  H   LIG d   1       2.158  -1.819 -10.965  0.00  0.00     0.031 H 
ATOM     12  C   LIG d   1       4.142  -2.651 -11.282  0.00  0.00    -0.042 C 
ATOM     13  H   LIG d   1       4.806  -2.865 -12.132  0.00  0.00     0.027 H 
ATOM     14  H   LIG d   1       4.668  -2.013 -10.558  0.00  0.00     0.027 H 
ATOM     15  H   LIG d   1       4.597  -4.591 -10.436  0.00  0.00     0.035 H 
BRANCH   5  16
ATOM     16  C   LIG d   1       2.549  -6.176 -11.221  0.00  0.00    -0.043 C 
ATOM     17  H   LIG d   1       2.368  -6.711 -12.165  0.00  0.00     0.027 H 
ATOM     18  H   LIG d   1       1.676  -6.292 -10.562  0.00  0.00     0.027 H 
ATOM     19  H   LIG d   1       3.439  -6.595 -10.728  0.00  0.00     0.027 H 
ENDBRANCH   5  16
BRANCH   7  20
ATOM     20  C   LIG d   1       0.892  -2.194 -13.263  0.00  0.00     0.051 C 
ATOM     21  H   LIG d   1       0.999  -1.188 -13.695  0.00  0.00     0.056 H 
ATOM     22  H   LIG d   1       0.400  -2.856 -13.991  0.00  0.00     0.056 H 
BRANCH  20  23
ATOM     23  O   LIG d   1       0.101  -2.122 -12.076  0.00  0.00    -0.394 OA
ATOM     24  H   LIG d   1      -0.141  -1.143 -11.635  0.00  0.00     0.209 HD
ENDBRANCH  20  23
ENDBRANCH   7  20
BRANCH  10  25
ATOM     25  C   LIG d   1       3.263  -0.539 -12.298  0.00  0.00    -0.043 C 
ATOM     26  H   LIG d   1       2.404  -0.097 -12.825  0.00  0.00     0.030 H 
BRANCH  25  27
ATOM     27  C   LIG d   1       3.650   0.355 -11.117  0.00  0.00    -0.062 C 
ATOM     28  H   LIG d   1       3.485  -0.190 -10.175  0.00  0.00     0.023 H 
ATOM     29  H   LIG d   1       3.031   1.264 -11.128  0.00  0.00     0.023 H 
ATOM     30  H   LIG d   1       4.712   0.632 -11.200  0.00  0.00     0.023 H 
ENDBRANCH  25  27
BRANCH  25  31
ATOM     31  C   LIG d   1       4.447  -0.655 -13.259  0.00  0.00    -0.062 C 
ATOM     32  H   LIG d   1       5.103  -1.477 -12.936  0.00  0.00     0.023 H 
ATOM     33  H   LIG d   1       5.013   0.288 -13.259  0.00  0.00     0.023 H 
ATOM     34  H   LIG d   1       4.076  -0.859 -14.275  0.00  0.00     0.023 H 
ENDBRANCH  25  31
ENDBRANCH  10  25
ENDBRANCH   1   4
BRANCH   1  35
ATOM     35  C   LIG d   1       3.901  -4.044  -8.141  0.00  0.00     0.216 C 
ATOM     36  O   LIG d   1       4.062  -5.217  -7.877  0.00  0.00    -0.276 OA
ATOM     37  N   LIG d   1       4.518  -3.099  -7.406  0.00  0.00    -0.298 N 
ATOM     38  C   LIG d   1       5.392  -3.467  -6.281  0.00  0.00     0.030 C 
ATOM     39  C   LIG d   1       4.343  -1.671  -7.711  0.00  0.00     0.030 C 
ATOM     40  C   LIG d   1       4.956  -2.672  -5.046  0.00  0.00     0.028 C 
ATOM     41  H   LIG d   1       5.301  -4.545  -6.084  0.00  0.00     0.048 H 
ATOM     42  H   LIG d   1       6.435  -3.227  -6.533  0.00  0.00     0.048 H 
ATOM     43  N   LIG d   1       4.933  -1.239  -5.372  0.00  0.00    -0.324 NA
ATOM     44  H   LIG d   1       5.665  -2.850  -4.224  0.00  0.00     0.048 H 
ATOM     45  H   LIG d   1       3.950  -2.994  -4.738  0.00  0.00     0.048 H 
ATOM     46  C   LIG d   1       3.942  -0.946  -6.416  0.00  0.00     0.028 C 
ATOM     47  H   LIG d   1       3.909   0.138  -6.599  0.00  0.00     0.048 H 
ATOM     48  H   LIG d   1       2.951  -1.295  -6.093  0.00  0.00     0.048 H 
ATOM     49  H   LIG d   1       5.287  -1.260  -8.098  0.00  0.00     0.048 H 
ATOM     50  H   LIG d   1       3.554  -1.553  -8.469  0.00  0.00     0.048 H 
BRANCH  43  51
ATOM     51  C   LIG d   1       4.699  -0.468  -4.228  0.00  0.00     0.072 A 
ATOM     52  C   LIG d   1       5.725   0.298  -3.679  0.00  0.00     0.141 A 
ATOM     53  C   LIG d   1       5.487   1.059  -2.547  0.00  0.00    -0.018 A 
ATOM     54  C   LIG d   1       4.233   1.058  -1.963  0.00  0.00    -0.058 A 
ATOM     55  H   LIG d   1       6.280   1.654  -2.119  0.00  0.00     0.066 H 
ATOM     56  C   LIG d   1       3.214   0.298  -2.508  0.00  0.00    -0.060 A 
ATOM     57  H   LIG d   1       4.050   1.652  -1.081  0.00  0.00     0.062 H 
ATOM     58  C   LIG d   1       3.442  -0.461  -3.641  0.00  0.00    -0.037 A 
ATOM     59  H   LIG d   1       2.236   0.301  -2.049  0.00  0.00     0.062 H 
ATOM     60  H   LIG d   1       2.644  -1.050  -4.065  0.00  0.00     0.064 H 
BRANCH  52  61
ATOM     61  O   LIG d   1       6.958   0.299  -4.254  0.00  0.00    -0.493 OA
BRANCH  61  62
ATOM     62  C   LIG d   1       7.841   1.360  -3.891  0.00  0.00     0.079 C 
ATOM     63  H   LIG d   1       8.843   0.952  -3.692  0.00  0.00     0.066 H 
ATOM     64  H   LIG d   1       7.464   1.861  -2.987  0.00  0.00     0.066 H 
ATOM     65  H   LIG d   1       7.900   2.087  -4.715  0.00  0.00     0.066 H 
ENDBRANCH  61  62
ENDBRANCH  52  61
ENDBRANCH  43  51
ENDBRANCH   1  35
TORSDOF 11
ENDMDL
MODEL 8
REMARK VINA RESULT:      -5.6      1.888      2.350
REMARK  11 active torsions:
REMARK  status: ('A' for Active; 'I' for Inactive)
REMARK    1  A    between atoms: C_1  and  C_2 
REMARK    2  A    between atoms: C_4  and  C_31 
REMARK    3  A    between atoms: C_6  and  C_28 
REMARK    4  A    between atoms: C_9  and  C_11 
REMARK    5  A    between atoms: C_11  and  C_12 
REMARK       I    between atoms: C_12  and  N_14 
REMARK    6  A    between atoms: N_17  and  C_20 
REMARK    7  A    between atoms: C_25  and  O_26 
REMARK    8  A    between atoms: O_26  and  C_27 
REMARK    9  A    between atoms: C_28  and  C_29 
REMARK   10  A    between atoms: C_28  and  C_30 
REMARK   11  A    between atoms: C_31  and  O_32 
ROOT
ATOM      1  C   LIG d   1      10.479  -4.608  -4.606  0.00  0.00     0.031 C 
ATOM      2  H   LIG d   1      11.184  -4.932  -5.387  0.00  0.00     0.036 H 
ATOM      3  H   LIG d   1       9.539  -5.172  -4.703  0.00  0.00     0.036 H 
ENDROOT
BRANCH   1   4
ATOM      4  C   LIG d   1      11.091  -4.871  -3.228  0.00  0.00    -0.012 C 
ATOM      5  C   LIG d   1       9.993  -5.119  -2.235  0.00  0.00    -0.073 C 
ATOM      6  C   LIG d   1       9.668  -6.291  -1.793  0.00  0.00    -0.079 C 
ATOM      7  C   LIG d   1      10.348  -7.563  -2.203  0.00  0.00     0.004 C 
ATOM      8  H   LIG d   1       8.846  -6.396  -1.070  0.00  0.00     0.058 H 
ATOM      9  H   LIG d   1      11.027  -7.863  -1.391  0.00  0.00     0.037 H 
ATOM     10  C   LIG d   1      11.151  -7.342  -3.486  0.00  0.00    -0.030 C 
ATOM     11  H   LIG d   1      10.470  -7.216  -4.341  0.00  0.00     0.031 H 
ATOM     12  C   LIG d   1      12.016  -6.088  -3.308  0.00  0.00    -0.042 C 
ATOM     13  H   LIG d   1      12.601  -6.175  -2.381  0.00  0.00     0.027 H 
ATOM     14  H   LIG d   1      12.698  -5.987  -4.164  0.00  0.00     0.027 H 
ATOM     15  H   LIG d   1      11.664  -3.994  -2.890  0.00  0.00     0.035 H 
BRANCH   5  16
ATOM     16  C   LIG d   1       9.223  -3.931  -1.722  0.00  0.00    -0.043 C 
ATOM     17  H   LIG d   1       8.725  -3.425  -2.562  0.00  0.00     0.027 H 
ATOM     18  H   LIG d   1       9.913  -3.229  -1.229  0.00  0.00     0.027 H 
ATOM     19  H   LIG d   1       8.466  -4.269  -0.998  0.00  0.00     0.027 H 
ENDBRANCH   5  16
BRANCH   7  20
ATOM     20  C   LIG d   1       9.295  -8.647  -2.445  0.00  0.00     0.051 C 
ATOM     21  H   LIG d   1       8.788  -8.458  -3.403  0.00  0.00     0.056 H 
ATOM     22  H   LIG d   1       9.783  -9.632  -2.476  0.00  0.00     0.056 H 
BRANCH  20  23
ATOM     23  O   LIG d   1       8.337  -8.624  -1.385  0.00  0.00    -0.394 OA
ATOM     24  H   LIG d   1       7.685  -9.494  -1.214  0.00  0.00     0.209 HD
ENDBRANCH  20  23
ENDBRANCH   7  20
BRANCH  10  25
ATOM     25  C   LIG d   1      12.050  -8.552  -3.746  0.00  0.00    -0.043 C 
ATOM     26  H   LIG d   1      11.445  -9.471  -3.720  0.00  0.00     0.030 H 
BRANCH  25  27
ATOM     27  C   LIG d   1      12.707  -8.414  -5.121  0.00  0.00    -0.062 C 
ATOM     28  H   LIG d   1      12.691  -9.387  -5.636  0.00  0.00     0.023 H 
ATOM     29  H   LIG d   1      13.749  -8.082  -4.998  0.00  0.00     0.023 H 
ATOM     30  H   LIG d   1      12.154  -7.674  -5.719  0.00  0.00     0.023 H 
ENDBRANCH  25  27
BRANCH  25  31
ATOM     31  C   LIG d   1      13.133  -8.625  -2.669  0.00  0.00    -0.062 C 
ATOM     32  H   LIG d   1      14.060  -8.170  -3.048  0.00  0.00     0.023 H 
ATOM     33  H   LIG d   1      13.321  -9.677  -2.408  0.00  0.00     0.023 H 
ATOM     34  H   LIG d   1      12.797  -8.080  -1.774  0.00  0.00     0.023 H 
ENDBRANCH  25  31
ENDBRANCH  10  25
ENDBRANCH   1   4
BRANCH   1  35
ATOM     35  C   LIG d   1      10.200  -3.136  -4.760  0.00  0.00     0.216 C 
ATOM     36  O   LIG d   1      11.081  -2.327  -4.562  0.00  0.00    -0.276 OA
ATOM     37  N   LIG d   1       8.970  -2.718  -5.119  0.00  0.00    -0.298 N 
ATOM     38  C   LIG d   1       8.675  -1.285  -5.275  0.00  0.00     0.030 C 
ATOM     39  C   LIG d   1       7.888  -3.681  -5.370  0.00  0.00     0.030 C 
ATOM     40  C   LIG d   1       7.420  -0.954  -4.461  0.00  0.00     0.028 C 
ATOM     41  H   LIG d   1       9.527  -0.693  -4.908  0.00  0.00     0.048 H 
ATOM     42  H   LIG d   1       8.504  -1.059  -6.338  0.00  0.00     0.048 H 
ATOM     43  N   LIG d   1       6.331  -1.859  -4.855  0.00  0.00    -0.324 NA
ATOM     44  H   LIG d   1       7.120   0.087  -4.653  0.00  0.00     0.048 H 
ATOM     45  H   LIG d   1       7.633  -1.081  -3.389  0.00  0.00     0.048 H 
ATOM     46  C   LIG d   1       6.662  -3.256  -4.546  0.00  0.00     0.028 C 
ATOM     47  H   LIG d   1       5.808  -3.902  -4.800  0.00  0.00     0.048 H 
ATOM     48  H   LIG d   1       6.889  -3.353  -3.475  0.00  0.00     0.048 H 
ATOM     49  H   LIG d   1       7.640  -3.683  -6.442  0.00  0.00     0.048 H 
ATOM     50  H   LIG d   1       8.215  -4.687  -5.068  0.00  0.00     0.048 H 
BRANCH  43  51
ATOM     51  C   LIG d   1       5.125  -1.483  -4.254  0.00  0.00     0.072 A 
ATOM     52  C   LIG d   1       4.305  -0.537  -4.864  0.00  0.00     0.141 A 
ATOM     53  C   LIG d   1       3.112  -0.170  -4.264  0.00  0.00    -0.018 A 
ATOM     54  C   LIG d   1       2.737  -0.742  -3.063  0.00  0.00    -0.058 A 
ATOM     55  H   LIG d   1       2.474   0.564  -4.735  0.00  0.00     0.066 H 
ATOM     56  C   LIG d   1       3.550  -1.682  -2.457  0.00  0.00    -0.060 A 
ATOM     57  H   LIG d   1       1.806  -0.454  -2.597  0.00  0.00     0.062 H 
ATOM     58  C   LIG d   1       4.740  -2.057  -3.051  0.00  0.00    -0.037 A 
ATOM     59  H   LIG d   1       3.252  -2.127  -1.518  0.00  0.00     0.062 H 
ATOM     60  H   LIG d   1       5.371  -2.794  -2.578  0.00  0.00     0.064 H 
BRANCH  52  61
ATOM     61  O   LIG d   1       4.674   0.025  -6.046  0.00  0.00    -0.493 OA
BRANCH  61  62
ATOM     62  C   LIG d   1       3.823  -0.209  -7.169  0.00  0.00     0.079 C 
ATOM     63  H   LIG d   1       2.882   0.346  -7.039  0.00  0.00     0.066 H 
ATOM     64  H   LIG d   1       3.606  -1.284  -7.248  0.00  0.00     0.066 H 
ATOM     65  H   LIG d   1       4.325   0.132  -8.087  0.00  0.00     0.066 H 
ENDBRANCH  61  62
ENDBRANCH  52  61
ENDBRANCH  43  51
ENDBRANCH   1  35
TORSDOF 11
ENDMDL
MODEL 9
REMARK VINA RESULT:      -5.6      3.351      9.169
REMARK  11 active torsions:
REMARK  status: ('A' for Active; 'I' for Inactive)
REMARK    1  A    between atoms: C_1  and  C_2 
REMARK    2  A    between atoms: C_4  and  C_31 
REMARK    3  A    between atoms: C_6  and  C_28 
REMARK    4  A    between atoms: C_9  and  C_11 
REMARK    5  A    between atoms: C_11  and  C_12 
REMARK       I    between atoms: C_12  and  N_14 
REMARK    6  A    between atoms: N_17  and  C_20 
REMARK    7  A    between atoms: C_25  and  O_26 
REMARK    8  A    between atoms: O_26  and  C_27 
REMARK    9  A    between atoms: C_28  and  C_29 
REMARK   10  A    between atoms: C_28  and  C_30 
REMARK   11  A    between atoms: C_31  and  O_32 
ROOT
ATOM      1  C   LIG d   1       4.588   0.299  -7.687  0.00  0.00     0.031 C 
ATOM      2  H   LIG d   1       5.191  -0.381  -8.307  0.00  0.00     0.036 H 
ATOM      3  H   LIG d   1       5.152   1.225  -7.501  0.00  0.00     0.036 H 
ENDROOT
BRANCH   1   4
ATOM      4  C   LIG d   1       3.286   0.634  -8.417  0.00  0.00    -0.012 C 
ATOM      5  C   LIG d   1       3.594   1.457  -9.633  0.00  0.00    -0.073 C 
ATOM      6  C   LIG d   1       3.600   0.991 -10.841  0.00  0.00    -0.079 C 
ATOM      7  C   LIG d   1       3.289  -0.433 -11.194  0.00  0.00     0.004 C 
ATOM      8  H   LIG d   1       3.844   1.654 -11.684  0.00  0.00     0.058 H 
ATOM      9  H   LIG d   1       2.264  -0.470 -11.591  0.00  0.00     0.037 H 
ATOM     10  C   LIG d   1       3.389  -1.319  -9.951  0.00  0.00    -0.030 C 
ATOM     11  H   LIG d   1       4.442  -1.431  -9.651  0.00  0.00     0.031 H 
ATOM     12  C   LIG d   1       2.583  -0.664  -8.823  0.00  0.00    -0.042 C 
ATOM     13  H   LIG d   1       1.566  -0.444  -9.178  0.00  0.00     0.027 H 
ATOM     14  H   LIG d   1       2.531  -1.348  -7.963  0.00  0.00     0.027 H 
ATOM     15  H   LIG d   1       2.623   1.224  -7.766  0.00  0.00     0.035 H 
BRANCH   5  16
ATOM     16  C   LIG d   1       3.918   2.915  -9.437  0.00  0.00    -0.043 C 
ATOM     17  H   LIG d   1       3.004   3.460  -9.159  0.00  0.00     0.027 H 
ATOM     18  H   LIG d   1       4.323   3.331 -10.371  0.00  0.00     0.027 H 
ATOM     19  H   LIG d   1       4.666   3.020  -8.636  0.00  0.00     0.027 H 
ENDBRANCH   5  16
BRANCH   7  20
ATOM     20  C   LIG d   1       4.286  -0.924 -12.247  0.00  0.00     0.051 C 
ATOM     21  H   LIG d   1       5.220  -1.229 -11.753  0.00  0.00     0.056 H 
ATOM     22  H   LIG d   1       3.858  -1.782 -12.786  0.00  0.00     0.056 H 
BRANCH  20  23
ATOM     23  O   LIG d   1       4.558   0.130 -13.172  0.00  0.00    -0.394 OA
ATOM     24  H   LIG d   1       5.418   0.797 -13.009  0.00  0.00     0.209 HD
ENDBRANCH  20  23
ENDBRANCH   7  20
BRANCH  10  25
ATOM     25  C   LIG d   1       2.814  -2.703 -10.257  0.00  0.00    -0.043 C 
ATOM     26  H   LIG d   1       3.239  -3.077 -11.200  0.00  0.00     0.030 H 
BRANCH  25  27
ATOM     27  C   LIG d   1       3.168  -3.665  -9.121  0.00  0.00    -0.062 C 
ATOM     28  H   LIG d   1       2.270  -3.869  -8.519  0.00  0.00     0.023 H 
ATOM     29  H   LIG d   1       3.942  -3.211  -8.484  0.00  0.00     0.023 H 
ATOM     30  H   LIG d   1       3.547  -4.608  -9.545  0.00  0.00     0.023 H 
ENDBRANCH  25  27
BRANCH  25  31
ATOM     31  C   LIG d   1       1.293  -2.606 -10.387  0.00  0.00    -0.062 C 
ATOM     32  H   LIG d   1       0.946  -3.291 -11.174  0.00  0.00     0.023 H 
ATOM     33  H   LIG d   1       1.012  -1.575 -10.649  0.00  0.00     0.023 H 
ATOM     34  H   LIG d   1       0.824  -2.881  -9.430  0.00  0.00     0.023 H 
ENDBRANCH  25  31
ENDBRANCH  10  25
ENDBRANCH   1   4
BRANCH   1  35
ATOM     35  C   LIG d   1       4.270  -0.367  -6.373  0.00  0.00     0.216 C 
ATOM     36  O   LIG d   1       3.562   0.193  -5.564  0.00  0.00    -0.276 OA
ATOM     37  N   LIG d   1       4.774  -1.586  -6.097  0.00  0.00    -0.298 N 
ATOM     38  C   LIG d   1       4.476  -2.255  -4.821  0.00  0.00     0.030 C 
ATOM     39  C   LIG d   1       5.631  -2.287  -7.065  0.00  0.00     0.030 C 
ATOM     40  C   LIG d   1       5.796  -2.707  -4.188  0.00  0.00     0.028 C 
ATOM     41  H   LIG d   1       3.960  -1.552  -4.150  0.00  0.00     0.048 H 
ATOM     42  H   LIG d   1       3.831  -3.126  -5.005  0.00  0.00     0.048 H 
ATOM     43  N   LIG d   1       6.547  -3.519  -5.155  0.00  0.00    -0.324 NA
ATOM     44  H   LIG d   1       5.588  -3.305  -3.289  0.00  0.00     0.048 H 
ATOM     45  H   LIG d   1       6.392  -1.824  -3.910  0.00  0.00     0.048 H 
ATOM     46  C   LIG d   1       6.911  -2.734  -6.342  0.00  0.00     0.028 C 
ATOM     47  H   LIG d   1       7.518  -3.351  -7.021  0.00  0.00     0.048 H 
ATOM     48  H   LIG d   1       7.487  -1.849  -6.036  0.00  0.00     0.048 H 
ATOM     49  H   LIG d   1       5.096  -3.162  -7.463  0.00  0.00     0.048 H 
ATOM     50  H   LIG d   1       5.883  -1.605  -7.891  0.00  0.00     0.048 H 
BRANCH  43  51
ATOM     51  C   LIG d   1       7.680  -4.086  -4.561  0.00  0.00     0.072 A 
ATOM     52  C   LIG d   1       8.043  -5.398  -4.857  0.00  0.00     0.141 A 
ATOM     53  C   LIG d   1       9.166  -5.952  -4.266  0.00  0.00    -0.018 A 
ATOM     54  C   LIG d   1       9.925  -5.204  -3.385  0.00  0.00    -0.058 A 
ATOM     55  H   LIG d   1       9.450  -6.969  -4.494  0.00  0.00     0.066 H 
ATOM     56  C   LIG d   1       9.566  -3.902  -3.091  0.00  0.00    -0.060 A 
ATOM     57  H   LIG d   1      10.800  -5.638  -2.925  0.00  0.00     0.062 H 
ATOM     58  C   LIG d   1       8.449  -3.339  -3.680  0.00  0.00    -0.037 A 
ATOM     59  H   LIG d   1      10.162  -3.321  -2.402  0.00  0.00     0.062 H 
ATOM     60  H   LIG d   1       8.173  -2.321  -3.451  0.00  0.00     0.064 H 
BRANCH  52  61
ATOM     61  O   LIG d   1       7.297  -6.132  -5.725  0.00  0.00    -0.493 OA
BRANCH  61  62
ATOM     62  C   LIG d   1       7.865  -6.392  -7.009  0.00  0.00     0.079 C 
ATOM     63  H   LIG d   1       8.935  -6.138  -6.996  0.00  0.00     0.066 H 
ATOM     64  H   LIG d   1       7.354  -5.782  -7.768  0.00  0.00     0.066 H 
ATOM     65  H   LIG d   1       7.745  -7.458  -7.255  0.00  0.00     0.066 H 
ENDBRANCH  61  62
ENDBRANCH  52  61
ENDBRANCH  43  51
ENDBRANCH   1  35
TORSDOF 11
ENDMDL
