MODEL 1
REMARK VINA RESULT:      -7.0      0.000      0.000
REMARK  5 active torsions:
REMARK  status: ('A' for Active; 'I' for Inactive)
REMARK    1  A    between atoms: C_1  and  C_2 
REMARK    2  A    between atoms: C_4  and  C_22 
REMARK    3  A    between atoms: C_4  and  C_23 
REMARK    4  A    between atoms: C_5  and  C_10 
REMARK       I    between atoms: N_12  and  C_19 
REMARK    5  A    between atoms: C_19  and  C_21 
ROOT
ATOM      1  C   LIG d   1       6.391  -6.099  -5.462  0.00  0.00     0.112 C 
ATOM      2  C   LIG d   1       7.235  -5.066  -5.289  0.00  0.00     0.156 C 
ATOM      3  C   LIG d   1       6.700  -3.656  -5.245  0.00  0.00     0.065 C 
ATOM      4  C   LIG d   1       5.255  -3.688  -4.736  0.00  0.00     0.142 C 
ATOM      5  H   LIG d   1       5.238  -4.004  -3.694  0.00  0.00     0.080 H 
ATOM      6  O   LIG d   1       4.510  -4.617  -5.532  0.00  0.00    -0.455 OA
ATOM      7  C   LIG d   1       5.001  -5.874  -5.599  0.00  0.00     0.318 C 
ATOM      8  O   LIG d   1       4.248  -6.812  -5.778  0.00  0.00    -0.250 OA
ATOM      9  O   LIG d   1       8.557  -5.290  -5.154  0.00  0.00    -0.296 OA
ATOM     10  H   LIG d   1       6.169  -5.861  -4.518  0.00  0.00     0.049 H 
ENDROOT
BRANCH   4  11
ATOM     11  C   LIG d   1       4.645  -2.315  -4.860  0.00  0.00     0.019 A 
ATOM     12  C   LIG d   1       4.456  -1.346  -3.775  0.00  0.00     0.007 A 
ATOM     13  C   LIG d   1       3.856  -0.216  -4.359  0.00  0.00     0.057 A 
ATOM     14  C   LIG d   1       4.742  -1.354  -2.409  0.00  0.00    -0.052 A 
ATOM     15  N   LIG d   1       3.696  -0.492  -5.705  0.00  0.00    -0.287 N 
ATOM     16  C   LIG d   1       3.551   0.882  -3.567  0.00  0.00    -0.037 A 
ATOM     17  C   LIG d   1       4.175  -1.751  -5.980  0.00  0.00     0.020 A 
ATOM     18  C   LIG d   1       3.152   0.346  -6.609  0.00  0.00     0.229 C 
ATOM     19  H   LIG d   1       4.172  -2.217  -6.954  0.00  0.00     0.082 H 
ATOM     20  O   LIG d   1       2.758   1.439  -6.264  0.00  0.00    -0.273 OA
ATOM     21  C   LIG d   1       3.839   0.860  -2.219  0.00  0.00    -0.060 A 
ATOM     22  H   LIG d   1       3.090   1.755  -4.006  0.00  0.00     0.064 H 
ATOM     23  C   LIG d   1       4.427  -0.255  -1.640  0.00  0.00    -0.061 A 
ATOM     24  H   LIG d   1       3.600   1.717  -1.606  0.00  0.00     0.062 H 
ATOM     25  H   LIG d   1       4.643  -0.261  -0.582  0.00  0.00     0.062 H 
ATOM     26  H   LIG d   1       5.203  -2.219  -1.956  0.00  0.00     0.062 H 
BRANCH  18  27
ATOM     27  C   LIG d   1       3.033  -0.075  -8.052  0.00  0.00     0.015 C 
ATOM     28  H   LIG d   1       2.024   0.128  -8.408  0.00  0.00     0.033 H 
ATOM     29  H   LIG d   1       3.750   0.484  -8.654  0.00  0.00     0.033 H 
ATOM     30  H   LIG d   1       3.241  -1.141  -8.137  0.00  0.00     0.033 H 
ENDBRANCH  18  27
ENDBRANCH   4  11
BRANCH   3  31
ATOM     31  C   LIG d   1       6.736  -3.051  -6.650  0.00  0.00    -0.049 C 
ATOM     32  H   LIG d   1       6.849  -3.849  -7.385  0.00  0.00     0.024 H 
ATOM     33  H   LIG d   1       5.808  -2.512  -6.838  0.00  0.00     0.024 H 
ATOM     34  H   LIG d   1       7.578  -2.363  -6.729  0.00  0.00     0.024 H 
ENDBRANCH   3  31
BRANCH   3  35
ATOM     35  C   LIG d   1       7.558  -2.812  -4.300  0.00  0.00    -0.049 C 
ATOM     36  H   LIG d   1       8.369  -2.348  -4.862  0.00  0.00     0.024 H 
ATOM     37  H   LIG d   1       6.941  -2.036  -3.845  0.00  0.00     0.024 H 
ATOM     38  H   LIG d   1       7.973  -3.449  -3.520  0.00  0.00     0.024 H 
ENDBRANCH   3  35
BRANCH   1  39
ATOM     39  C   LIG d   1       6.930  -7.505  -5.513  0.00  0.00    -0.045 C 
ATOM     40  H   LIG d   1       6.393  -8.073  -6.272  0.00  0.00     0.024 H 
ATOM     41  H   LIG d   1       7.991  -7.479  -5.762  0.00  0.00     0.024 H 
ATOM     42  H   LIG d   1       6.798  -7.981  -4.541  0.00  0.00     0.024 H 
ENDBRANCH   1  39
TORSDOF 5
ENDMDL
MODEL 2
REMARK VINA RESULT:      -6.2      2.239      2.412
REMARK  5 active torsions:
REMARK  status: ('A' for Active; 'I' for Inactive)
REMARK    1  A    between atoms: C_1  and  C_2 
REMARK    2  A    between atoms: C_4  and  C_22 
REMARK    3  A    between atoms: C_4  and  C_23 
REMARK    4  A    between atoms: C_5  and  C_10 
REMARK       I    between atoms: N_12  and  C_19 
REMARK    5  A    between atoms: C_19  and  C_21 
ROOT
ATOM      1  C   LIG d   1       5.632  -6.084  -5.829  0.00  0.00     0.112 C 
ATOM      2  C   LIG d   1       6.897  -5.719  -5.557  0.00  0.00     0.156 C 
ATOM      3  C   LIG d   1       7.215  -4.277  -5.245  0.00  0.00     0.065 C 
ATOM      4  C   LIG d   1       5.974  -3.615  -4.637  0.00  0.00     0.142 C 
ATOM      5  H   LIG d   1       5.763  -4.050  -3.661  0.00  0.00     0.080 H 
ATOM      6  O   LIG d   1       4.862  -3.837  -5.514  0.00  0.00    -0.455 OA
ATOM      7  C   LIG d   1       4.592  -5.125  -5.820  0.00  0.00     0.318 C 
ATOM      8  O   LIG d   1       3.453  -5.460  -6.089  0.00  0.00    -0.250 OA
ATOM      9  O   LIG d   1       7.881  -6.640  -5.562  0.00  0.00    -0.296 OA
ATOM     10  H   LIG d   1       5.553  -5.935  -4.844  0.00  0.00     0.049 H 
ENDROOT
BRANCH   4  11
ATOM     11  C   LIG d   1       6.212  -2.133  -4.491  0.00  0.00     0.019 A 
ATOM     12  C   LIG d   1       5.597  -1.247  -3.496  0.00  0.00     0.007 A 
ATOM     13  C   LIG d   1       6.116   0.036  -3.742  0.00  0.00     0.057 A 
ATOM     14  C   LIG d   1       4.685  -1.442  -2.459  0.00  0.00    -0.052 A 
ATOM     15  N   LIG d   1       6.984  -0.074  -4.814  0.00  0.00    -0.287 N 
ATOM     16  C   LIG d   1       5.713   1.100  -2.947  0.00  0.00    -0.037 A 
ATOM     17  C   LIG d   1       7.024  -1.380  -5.244  0.00  0.00     0.020 A 
ATOM     18  C   LIG d   1       7.682   0.943  -5.355  0.00  0.00     0.229 C 
ATOM     19  H   LIG d   1       7.622  -1.744  -6.067  0.00  0.00     0.082 H 
ATOM     20  O   LIG d   1       7.576   2.062  -4.900  0.00  0.00    -0.273 OA
ATOM     21  C   LIG d   1       4.809   0.893  -1.926  0.00  0.00    -0.060 A 
ATOM     22  H   LIG d   1       6.105   2.091  -3.128  0.00  0.00     0.064 H 
ATOM     23  C   LIG d   1       4.293  -0.372  -1.685  0.00  0.00    -0.061 A 
ATOM     24  H   LIG d   1       4.498   1.724  -1.310  0.00  0.00     0.062 H 
ATOM     25  H   LIG d   1       3.584  -0.520  -0.885  0.00  0.00     0.062 H 
ATOM     26  H   LIG d   1       4.284  -2.426  -2.267  0.00  0.00     0.062 H 
BRANCH  18  27
ATOM     27  C   LIG d   1       8.598   0.690  -6.526  0.00  0.00     0.015 C 
ATOM     28  H   LIG d   1       8.606  -0.374  -6.758  0.00  0.00     0.033 H 
ATOM     29  H   LIG d   1       8.243   1.248  -7.392  0.00  0.00     0.033 H 
ATOM     30  H   LIG d   1       9.607   1.015  -6.274  0.00  0.00     0.033 H 
ENDBRANCH  18  27
ENDBRANCH   4  11
BRANCH   3  31
ATOM     31  C   LIG d   1       7.607  -3.550  -6.532  0.00  0.00    -0.049 C 
ATOM     32  H   LIG d   1       7.297  -4.143  -7.392  0.00  0.00     0.024 H 
ATOM     33  H   LIG d   1       7.115  -2.578  -6.565  0.00  0.00     0.024 H 
ATOM     34  H   LIG d   1       8.688  -3.411  -6.557  0.00  0.00     0.024 H 
ENDBRANCH   3  31
BRANCH   3  35
ATOM     35  C   LIG d   1       8.371  -4.212  -4.244  0.00  0.00    -0.049 C 
ATOM     36  H   LIG d   1       8.194  -3.402  -3.537  0.00  0.00     0.024 H 
ATOM     37  H   LIG d   1       8.439  -5.157  -3.705  0.00  0.00     0.024 H 
ATOM     38  H   LIG d   1       9.304  -4.031  -4.778  0.00  0.00     0.024 H 
ENDBRANCH   3  35
BRANCH   1  39
ATOM     39  C   LIG d   1       5.320  -7.523  -6.147  0.00  0.00    -0.045 C 
ATOM     40  H   LIG d   1       4.330  -7.590  -6.597  0.00  0.00     0.024 H 
ATOM     41  H   LIG d   1       6.063  -7.911  -6.844  0.00  0.00     0.024 H 
ATOM     42  H   LIG d   1       5.342  -8.112  -5.229  0.00  0.00     0.024 H 
ENDBRANCH   1  39
TORSDOF 5
ENDMDL
MODEL 3
REMARK VINA RESULT:      -6.2      2.770      3.716
REMARK  5 active torsions:
REMARK  status: ('A' for Active; 'I' for Inactive)
REMARK    1  A    between atoms: C_1  and  C_2 
REMARK    2  A    between atoms: C_4  and  C_22 
REMARK    3  A    between atoms: C_4  and  C_23 
REMARK    4  A    between atoms: C_5  and  C_10 
REMARK       I    between atoms: N_12  and  C_19 
REMARK    5  A    between atoms: C_19  and  C_21 
ROOT
ATOM      1  C   LIG d   1       3.864  -4.262  -8.004  0.00  0.00     0.112 C 
ATOM      2  C   LIG d   1       4.252  -3.109  -8.576  0.00  0.00     0.156 C 
ATOM      3  C   LIG d   1       4.795  -1.989  -7.722  0.00  0.00     0.065 C 
ATOM      4  C   LIG d   1       5.431  -2.588  -6.463  0.00  0.00     0.142 C 
ATOM      5  H   LIG d   1       6.318  -3.160  -6.733  0.00  0.00     0.080 H 
ATOM      6  O   LIG d   1       4.476  -3.450  -5.834  0.00  0.00    -0.455 OA
ATOM      7  C   LIG d   1       3.964  -4.436  -6.603  0.00  0.00     0.318 C 
ATOM      8  O   LIG d   1       3.590  -5.475  -6.091  0.00  0.00    -0.250 OA
ATOM      9  O   LIG d   1       4.158  -2.953  -9.911  0.00  0.00    -0.296 OA
ATOM     10  H   LIG d   1       4.854  -4.362  -7.920  0.00  0.00     0.049 H 
ENDROOT
BRANCH   4  11
ATOM     11  C   LIG d   1       5.812  -1.480  -5.514  0.00  0.00     0.019 A 
ATOM     12  C   LIG d   1       5.139  -1.143  -4.255  0.00  0.00     0.007 A 
ATOM     13  C   LIG d   1       5.841  -0.049  -3.717  0.00  0.00     0.057 A 
ATOM     14  C   LIG d   1       4.041  -1.668  -3.573  0.00  0.00    -0.052 A 
ATOM     15  N   LIG d   1       6.865   0.249  -4.597  0.00  0.00    -0.287 N 
ATOM     16  C   LIG d   1       5.430   0.499  -2.510  0.00  0.00    -0.037 A 
ATOM     17  C   LIG d   1       6.828  -0.619  -5.663  0.00  0.00     0.020 A 
ATOM     18  C   LIG d   1       7.763   1.241  -4.435  0.00  0.00     0.229 C 
ATOM     19  H   LIG d   1       7.514  -0.609  -6.496  0.00  0.00     0.082 H 
ATOM     20  O   LIG d   1       7.710   1.954  -3.457  0.00  0.00    -0.273 OA
ATOM     21  C   LIG d   1       4.343  -0.030  -1.847  0.00  0.00    -0.060 A 
ATOM     22  H   LIG d   1       5.962   1.340  -2.088  0.00  0.00     0.064 H 
ATOM     23  C   LIG d   1       3.647  -1.106  -2.379  0.00  0.00    -0.061 A 
ATOM     24  H   LIG d   1       4.027   0.400  -0.908  0.00  0.00     0.062 H 
ATOM     25  H   LIG d   1       2.795  -1.509  -1.852  0.00  0.00     0.062 H 
ATOM     26  H   LIG d   1       3.500  -2.508  -3.983  0.00  0.00     0.062 H 
BRANCH  18  27
ATOM     27  C   LIG d   1       8.835   1.463  -5.471  0.00  0.00     0.015 C 
ATOM     28  H   LIG d   1       8.594   0.899  -6.372  0.00  0.00     0.033 H 
ATOM     29  H   LIG d   1       8.894   2.525  -5.712  0.00  0.00     0.033 H 
ATOM     30  H   LIG d   1       9.795   1.127  -5.079  0.00  0.00     0.033 H 
ENDBRANCH  18  27
ENDBRANCH   4  11
BRANCH   3  31
ATOM     31  C   LIG d   1       3.654  -1.050  -7.324  0.00  0.00    -0.049 C 
ATOM     32  H   LIG d   1       3.877  -0.042  -7.671  0.00  0.00     0.024 H 
ATOM     33  H   LIG d   1       2.725  -1.395  -7.779  0.00  0.00     0.024 H 
ATOM     34  H   LIG d   1       3.548  -1.047  -6.239  0.00  0.00     0.024 H 
ENDBRANCH   3  31
BRANCH   3  35
ATOM     35  C   LIG d   1       5.851  -1.210  -8.508  0.00  0.00    -0.049 C 
ATOM     36  H   LIG d   1       6.745  -1.824  -8.622  0.00  0.00     0.024 H 
ATOM     37  H   LIG d   1       5.457  -0.956  -9.493  0.00  0.00     0.024 H 
ATOM     38  H   LIG d   1       6.103  -0.296  -7.971  0.00  0.00     0.024 H 
ENDBRANCH   3  35
BRANCH   1  39
ATOM     39  C   LIG d   1       3.316  -5.375  -8.859  0.00  0.00    -0.045 C 
ATOM     40  H   LIG d   1       3.688  -5.267  -9.878  0.00  0.00     0.024 H 
ATOM     41  H   LIG d   1       3.636  -6.335  -8.455  0.00  0.00     0.024 H 
ATOM     42  H   LIG d   1       2.226  -5.328  -8.863  0.00  0.00     0.024 H 
ENDBRANCH   1  39
TORSDOF 5
ENDMDL
MODEL 4
REMARK VINA RESULT:      -5.9      4.893      7.143
REMARK  5 active torsions:
REMARK  status: ('A' for Active; 'I' for Inactive)
REMARK    1  A    between atoms: C_1  and  C_2 
REMARK    2  A    between atoms: C_4  and  C_22 
REMARK    3  A    between atoms: C_4  and  C_23 
REMARK    4  A    between atoms: C_5  and  C_10 
REMARK       I    between atoms: N_12  and  C_19 
REMARK    5  A    between atoms: C_19  and  C_21 
ROOT
ATOM      1  C   LIG d   1       9.890   4.212  -4.668  0.00  0.00     0.112 C 
ATOM      2  C   LIG d   1       9.637   3.501  -5.781  0.00  0.00     0.156 C 
ATOM      3  C   LIG d   1       8.931   2.171  -5.681  0.00  0.00     0.065 C 
ATOM      4  C   LIG d   1       8.039   2.175  -4.435  0.00  0.00     0.142 C 
ATOM      5  H   LIG d   1       7.227   2.890  -4.563  0.00  0.00     0.080 H 
ATOM      6  O   LIG d   1       8.835   2.548  -3.304  0.00  0.00    -0.455 OA
ATOM      7  C   LIG d   1       9.493   3.724  -3.400  0.00  0.00     0.318 C 
ATOM      8  O   LIG d   1       9.746   4.364  -2.396  0.00  0.00    -0.250 OA
ATOM      9  O   LIG d   1      10.014   3.976  -6.985  0.00  0.00    -0.296 OA
ATOM     10  H   LIG d   1       8.904   4.358  -4.736  0.00  0.00     0.049 H 
ENDROOT
BRANCH   4  11
ATOM     11  C   LIG d   1       7.469   0.796  -4.218  0.00  0.00     0.019 A 
ATOM     12  C   LIG d   1       6.329   0.450  -3.363  0.00  0.00     0.007 A 
ATOM     13  C   LIG d   1       6.164  -0.942  -3.473  0.00  0.00     0.057 A 
ATOM     14  C   LIG d   1       5.471   1.189  -2.547  0.00  0.00    -0.052 A 
ATOM     15  N   LIG d   1       7.143  -1.400  -4.337  0.00  0.00    -0.287 N 
ATOM     16  C   LIG d   1       5.148  -1.569  -2.766  0.00  0.00    -0.037 A 
ATOM     17  C   LIG d   1       7.910  -0.343  -4.769  0.00  0.00     0.020 A 
ATOM     18  C   LIG d   1       7.319  -2.685  -4.700  0.00  0.00     0.229 C 
ATOM     19  H   LIG d   1       8.745  -0.419  -5.451  0.00  0.00     0.082 H 
ATOM     20  O   LIG d   1       6.586  -3.545  -4.262  0.00  0.00    -0.273 OA
ATOM     21  C   LIG d   1       4.308  -0.825  -1.964  0.00  0.00    -0.060 A 
ATOM     22  H   LIG d   1       5.013  -2.638  -2.844  0.00  0.00     0.064 H 
ATOM     23  C   LIG d   1       4.471   0.548  -1.850  0.00  0.00    -0.061 A 
ATOM     24  H   LIG d   1       3.518  -1.317  -1.416  0.00  0.00     0.062 H 
ATOM     25  H   LIG d   1       3.809   1.117  -1.216  0.00  0.00     0.062 H 
ATOM     26  H   LIG d   1       5.594   2.259  -2.460  0.00  0.00     0.062 H 
BRANCH  18  27
ATOM     27  C   LIG d   1       8.427  -3.055  -5.653  0.00  0.00     0.015 C 
ATOM     28  H   LIG d   1       8.214  -4.026  -6.099  0.00  0.00     0.033 H 
ATOM     29  H   LIG d   1       8.499  -2.302  -6.438  0.00  0.00     0.033 H 
ATOM     30  H   LIG d   1       9.371  -3.104  -5.110  0.00  0.00     0.033 H 
ENDBRANCH  18  27
ENDBRANCH   4  11
BRANCH   3  31
ATOM     31  C   LIG d   1       9.965   1.050  -5.569  0.00  0.00    -0.049 C 
ATOM     32  H   LIG d   1      10.923   1.401  -5.952  0.00  0.00     0.024 H 
ATOM     33  H   LIG d   1      10.075   0.760  -4.525  0.00  0.00     0.024 H 
ATOM     34  H   LIG d   1       9.634   0.190  -6.152  0.00  0.00     0.024 H 
ENDBRANCH   3  31
BRANCH   3  35
ATOM     35  C   LIG d   1       8.069   1.955  -6.927  0.00  0.00    -0.049 C 
ATOM     36  H   LIG d   1       8.714   1.821  -7.796  0.00  0.00     0.024 H 
ATOM     37  H   LIG d   1       7.453   1.065  -6.792  0.00  0.00     0.024 H 
ATOM     38  H   LIG d   1       7.427   2.822  -7.080  0.00  0.00     0.024 H 
ENDBRANCH   3  35
BRANCH   1  39
ATOM     39  C   LIG d   1      10.602   5.536  -4.770  0.00  0.00    -0.045 C 
ATOM     40  H   LIG d   1      11.637   5.370  -5.071  0.00  0.00     0.024 H 
ATOM     41  H   LIG d   1      10.104   6.160  -5.512  0.00  0.00     0.024 H 
ATOM     42  H   LIG d   1      10.581   6.037  -3.802  0.00  0.00     0.024 H 
ENDBRANCH   1  39
TORSDOF 5
ENDMDL
MODEL 5
REMARK VINA RESULT:      -5.9      3.759      5.755
REMARK  5 active torsions:
REMARK  status: ('A' for Active; 'I' for Inactive)
REMARK    1  A    between atoms: C_1  and  C_2 
REMARK    2  A    between atoms: C_4  and  C_22 
REMARK    3  A    between atoms: C_4  and  C_23 
REMARK    4  A    between atoms: C_5  and  C_10 
REMARK       I    between atoms: N_12  and  C_19 
REMARK    5  A    between atoms: C_19  and  C_21 
ROOT
ATOM      1  C   LIG d   1       2.923  -0.726 -10.465  0.00  0.00     0.112 C 
ATOM      2  C   LIG d   1       3.552   0.425 -10.171  0.00  0.00     0.156 C 
ATOM      3  C   LIG d   1       4.104   0.650  -8.784  0.00  0.00     0.065 C 
ATOM      4  C   LIG d   1       4.446  -0.708  -8.160  0.00  0.00     0.142 C 
ATOM      5  H   LIG d   1       5.276  -1.163  -8.698  0.00  0.00     0.080 H 
ATOM      6  O   LIG d   1       3.293  -1.554  -8.247  0.00  0.00    -0.455 OA
ATOM      7  C   LIG d   1       2.778  -1.735  -9.483  0.00  0.00     0.318 C 
ATOM      8  O   LIG d   1       2.187  -2.764  -9.751  0.00  0.00    -0.250 OA
ATOM      9  O   LIG d   1       3.691   1.378 -11.114  0.00  0.00    -0.296 OA
ATOM     10  H   LIG d   1       3.865  -1.058 -10.428  0.00  0.00     0.049 H 
ENDROOT
BRANCH   4  11
ATOM     11  C   LIG d   1       4.823  -0.517  -6.713  0.00  0.00     0.019 A 
ATOM     12  C   LIG d   1       6.164  -0.224  -6.195  0.00  0.00     0.007 A 
ATOM     13  C   LIG d   1       6.033  -0.132  -4.798  0.00  0.00     0.057 A 
ATOM     14  C   LIG d   1       7.413  -0.040  -6.790  0.00  0.00    -0.052 A 
ATOM     15  N   LIG d   1       4.700  -0.357  -4.500  0.00  0.00    -0.287 N 
ATOM     16  C   LIG d   1       7.151   0.141  -4.023  0.00  0.00    -0.037 A 
ATOM     17  C   LIG d   1       3.998  -0.584  -5.660  0.00  0.00     0.020 A 
ATOM     18  C   LIG d   1       4.172  -0.353  -3.261  0.00  0.00     0.229 C 
ATOM     19  H   LIG d   1       2.939  -0.787  -5.714  0.00  0.00     0.082 H 
ATOM     20  O   LIG d   1       4.879  -0.141  -2.299  0.00  0.00    -0.273 OA
ATOM     21  C   LIG d   1       8.379   0.320  -4.624  0.00  0.00    -0.060 A 
ATOM     22  H   LIG d   1       7.061   0.213  -2.949  0.00  0.00     0.064 H 
ATOM     23  C   LIG d   1       8.511   0.225  -6.002  0.00  0.00    -0.061 A 
ATOM     24  H   LIG d   1       9.247   0.532  -4.017  0.00  0.00     0.062 H 
ATOM     25  H   LIG d   1       9.479   0.364  -6.460  0.00  0.00     0.062 H 
ATOM     26  H   LIG d   1       7.518  -0.110  -7.863  0.00  0.00     0.062 H 
BRANCH  18  27
ATOM     27  C   LIG d   1       2.699  -0.613  -3.068  0.00  0.00     0.015 C 
ATOM     28  H   LIG d   1       2.430  -1.552  -3.551  0.00  0.00     0.033 H 
ATOM     29  H   LIG d   1       2.477  -0.674  -2.003  0.00  0.00     0.033 H 
ATOM     30  H   LIG d   1       2.126   0.201  -3.512  0.00  0.00     0.033 H 
ENDBRANCH  18  27
ENDBRANCH   4  11
BRANCH   3  31
ATOM     31  C   LIG d   1       3.056   1.360  -7.926  0.00  0.00    -0.049 C 
ATOM     32  H   LIG d   1       3.542   2.123  -7.318  0.00  0.00     0.024 H 
ATOM     33  H   LIG d   1       2.314   1.829  -8.572  0.00  0.00     0.024 H 
ATOM     34  H   LIG d   1       2.566   0.635  -7.276  0.00  0.00     0.024 H 
ENDBRANCH   3  31
BRANCH   3  35
ATOM     35  C   LIG d   1       5.368   1.507  -8.869  0.00  0.00    -0.049 C 
ATOM     36  H   LIG d   1       5.240   2.404  -8.261  0.00  0.00     0.024 H 
ATOM     37  H   LIG d   1       6.220   0.936  -8.498  0.00  0.00     0.024 H 
ATOM     38  H   LIG d   1       5.545   1.792  -9.905  0.00  0.00     0.024 H 
ENDBRANCH   3  35
BRANCH   1  39
ATOM     39  C   LIG d   1       2.367  -0.943 -11.849  0.00  0.00    -0.045 C 
ATOM     40  H   LIG d   1       2.905  -0.316 -12.559  0.00  0.00     0.024 H 
ATOM     41  H   LIG d   1       2.484  -1.991 -12.128  0.00  0.00     0.024 H 
ATOM     42  H   LIG d   1       1.308  -0.681 -11.860  0.00  0.00     0.024 H 
ENDBRANCH   1  39
TORSDOF 5
ENDMDL
MODEL 6
REMARK VINA RESULT:      -5.8      3.061      5.750
REMARK  5 active torsions:
REMARK  status: ('A' for Active; 'I' for Inactive)
REMARK    1  A    between atoms: C_1  and  C_2 
REMARK    2  A    between atoms: C_4  and  C_22 
REMARK    3  A    between atoms: C_4  and  C_23 
REMARK    4  A    between atoms: C_5  and  C_10 
REMARK       I    between atoms: N_12  and  C_19 
REMARK    5  A    between atoms: C_19  and  C_21 
ROOT
ATOM      1  C   LIG d   1       4.578  -0.136  -3.161  0.00  0.00     0.112 C 
ATOM      2  C   LIG d   1       5.690  -0.161  -3.917  0.00  0.00     0.156 C 
ATOM      3  C   LIG d   1       5.601  -0.539  -5.376  0.00  0.00     0.065 C 
ATOM      4  C   LIG d   1       4.206  -0.179  -5.899  0.00  0.00     0.142 C 
ATOM      5  H   LIG d   1       4.082   0.903  -5.904  0.00  0.00     0.080 H 
ATOM      6  O   LIG d   1       3.228  -0.771  -5.036  0.00  0.00    -0.455 OA
ATOM      7  C   LIG d   1       3.321  -0.459  -3.725  0.00  0.00     0.318 C 
ATOM      8  O   LIG d   1       2.324  -0.455  -3.028  0.00  0.00    -0.250 OA
ATOM      9  O   LIG d   1       6.883   0.153  -3.374  0.00  0.00    -0.296 OA
ATOM     10  H   LIG d   1       4.426   0.687  -3.706  0.00  0.00     0.049 H 
ENDROOT
BRANCH   4  11
ATOM     11  C   LIG d   1       4.037  -0.716  -7.297  0.00  0.00     0.019 A 
ATOM     12  C   LIG d   1       4.008   0.073  -8.534  0.00  0.00     0.007 A 
ATOM     13  C   LIG d   1       3.832  -0.849  -9.581  0.00  0.00     0.057 A 
ATOM     14  C   LIG d   1       4.117   1.435  -8.817  0.00  0.00    -0.052 A 
ATOM     15  N   LIG d   1       3.759  -2.106  -9.008  0.00  0.00    -0.287 N 
ATOM     16  C   LIG d   1       3.766  -0.392 -10.890  0.00  0.00    -0.037 A 
ATOM     17  C   LIG d   1       3.884  -2.000  -7.643  0.00  0.00     0.020 A 
ATOM     18  C   LIG d   1       3.589  -3.258  -9.685  0.00  0.00     0.229 C 
ATOM     19  H   LIG d   1       3.861  -2.830  -6.952  0.00  0.00     0.082 H 
ATOM     20  O   LIG d   1       3.489  -3.244 -10.893  0.00  0.00    -0.273 OA
ATOM     21  C   LIG d   1       3.874   0.957 -11.155  0.00  0.00    -0.060 A 
ATOM     22  H   LIG d   1       3.630  -1.092 -11.702  0.00  0.00     0.064 H 
ATOM     23  C   LIG d   1       4.044   1.868 -10.122  0.00  0.00    -0.061 A 
ATOM     24  H   LIG d   1       3.822   1.309 -12.174  0.00  0.00     0.062 H 
ATOM     25  H   LIG d   1       4.124   2.922 -10.342  0.00  0.00     0.062 H 
ATOM     26  H   LIG d   1       4.253   2.146  -8.015  0.00  0.00     0.062 H 
BRANCH  18  27
ATOM     27  C   LIG d   1       3.525  -4.568  -8.941  0.00  0.00     0.015 C 
ATOM     28  H   LIG d   1       2.878  -5.260  -9.478  0.00  0.00     0.033 H 
ATOM     29  H   LIG d   1       4.526  -4.992  -8.864  0.00  0.00     0.033 H 
ATOM     30  H   LIG d   1       3.125  -4.398  -7.942  0.00  0.00     0.033 H 
ENDBRANCH  18  27
ENDBRANCH   4  11
BRANCH   3  31
ATOM     31  C   LIG d   1       5.834  -2.044  -5.529  0.00  0.00    -0.049 C 
ATOM     32  H   LIG d   1       6.776  -2.213  -6.049  0.00  0.00     0.024 H 
ATOM     33  H   LIG d   1       5.874  -2.507  -4.543  0.00  0.00     0.024 H 
ATOM     34  H   LIG d   1       5.017  -2.481  -6.103  0.00  0.00     0.024 H 
ENDBRANCH   3  31
BRANCH   3  35
ATOM     35  C   LIG d   1       6.660   0.229  -6.170  0.00  0.00    -0.049 C 
ATOM     36  H   LIG d   1       6.761  -0.213  -7.162  0.00  0.00     0.024 H 
ATOM     37  H   LIG d   1       6.357   1.272  -6.266  0.00  0.00     0.024 H 
ATOM     38  H   LIG d   1       7.615   0.175  -5.649  0.00  0.00     0.024 H 
ENDBRANCH   3  35
BRANCH   1  39
ATOM     39  C   LIG d   1       4.673   0.235  -1.704  0.00  0.00    -0.045 C 
ATOM     40  H   LIG d   1       5.238   1.161  -1.600  0.00  0.00     0.024 H 
ATOM     41  H   LIG d   1       3.670   0.374  -1.299  0.00  0.00     0.024 H 
ATOM     42  H   LIG d   1       5.177  -0.562  -1.158  0.00  0.00     0.024 H 
ENDBRANCH   1  39
TORSDOF 5
ENDMDL
MODEL 7
REMARK VINA RESULT:      -5.8      0.857      2.806
REMARK  5 active torsions:
REMARK  status: ('A' for Active; 'I' for Inactive)
REMARK    1  A    between atoms: C_1  and  C_2 
REMARK    2  A    between atoms: C_4  and  C_22 
REMARK    3  A    between atoms: C_4  and  C_23 
REMARK    4  A    between atoms: C_5  and  C_10 
REMARK       I    between atoms: N_12  and  C_19 
REMARK    5  A    between atoms: C_19  and  C_21 
ROOT
ATOM      1  C   LIG d   1       6.194  -5.951  -5.647  0.00  0.00     0.112 C 
ATOM      2  C   LIG d   1       7.072  -5.003  -5.274  0.00  0.00     0.156 C 
ATOM      3  C   LIG d   1       6.614  -3.576  -5.105  0.00  0.00     0.065 C 
ATOM      4  C   LIG d   1       5.127  -3.573  -4.733  0.00  0.00     0.142 C 
ATOM      5  H   LIG d   1       4.993  -4.007  -3.743  0.00  0.00     0.080 H 
ATOM      6  O   LIG d   1       4.412  -4.351  -5.700  0.00  0.00    -0.455 OA
ATOM      7  C   LIG d   1       4.838  -5.621  -5.877  0.00  0.00     0.318 C 
ATOM      8  O   LIG d   1       4.055  -6.481  -6.235  0.00  0.00    -0.250 OA
ATOM      9  O   LIG d   1       8.362  -5.328  -5.052  0.00  0.00    -0.296 OA
ATOM     10  H   LIG d   1       5.896  -5.811  -4.703  0.00  0.00     0.049 H 
ENDROOT
BRANCH   4  11
ATOM     11  C   LIG d   1       4.607  -2.158  -4.740  0.00  0.00     0.019 A 
ATOM     12  C   LIG d   1       4.041  -1.445  -5.891  0.00  0.00     0.007 A 
ATOM     13  C   LIG d   1       3.696  -0.163  -5.426  0.00  0.00     0.057 A 
ATOM     14  C   LIG d   1       3.811  -1.786  -7.224  0.00  0.00    -0.052 A 
ATOM     15  N   LIG d   1       4.034  -0.113  -4.085  0.00  0.00    -0.287 N 
ATOM     16  C   LIG d   1       3.129   0.752  -6.302  0.00  0.00    -0.037 A 
ATOM     17  C   LIG d   1       4.577  -1.316  -3.699  0.00  0.00     0.020 A 
ATOM     18  C   LIG d   1       3.859   0.954  -3.281  0.00  0.00     0.229 C 
ATOM     19  H   LIG d   1       4.927  -1.548  -2.704  0.00  0.00     0.082 H 
ATOM     20  O   LIG d   1       3.370   1.972  -3.720  0.00  0.00    -0.273 OA
ATOM     21  C   LIG d   1       2.907   0.400  -7.617  0.00  0.00    -0.060 A 
ATOM     22  H   LIG d   1       2.860   1.739  -5.954  0.00  0.00     0.064 H 
ATOM     23  C   LIG d   1       3.252  -0.862  -8.078  0.00  0.00    -0.061 A 
ATOM     24  H   LIG d   1       2.466   1.116  -8.295  0.00  0.00     0.062 H 
ATOM     25  H   LIG d   1       3.077  -1.123  -9.111  0.00  0.00     0.062 H 
ATOM     26  H   LIG d   1       4.075  -2.769  -7.585  0.00  0.00     0.062 H 
BRANCH  18  27
ATOM     27  C   LIG d   1       4.271   0.881  -1.832  0.00  0.00     0.015 C 
ATOM     28  H   LIG d   1       3.430   0.534  -1.232  0.00  0.00     0.033 H 
ATOM     29  H   LIG d   1       5.105   0.188  -1.725  0.00  0.00     0.033 H 
ATOM     30  H   LIG d   1       4.576   1.870  -1.492  0.00  0.00     0.033 H 
ENDBRANCH  18  27
ENDBRANCH   4  11
BRANCH   3  31
ATOM     31  C   LIG d   1       6.816  -2.814  -6.417  0.00  0.00    -0.049 C 
ATOM     32  H   LIG d   1       7.727  -3.165  -6.902  0.00  0.00     0.024 H 
ATOM     33  H   LIG d   1       5.964  -2.989  -7.073  0.00  0.00     0.024 H 
ATOM     34  H   LIG d   1       6.903  -1.748  -6.208  0.00  0.00     0.024 H 
ENDBRANCH   3  31
BRANCH   3  35
ATOM     35  C   LIG d   1       7.422  -2.906  -3.991  0.00  0.00    -0.049 C 
ATOM     36  H   LIG d   1       8.150  -2.225  -4.431  0.00  0.00     0.024 H 
ATOM     37  H   LIG d   1       6.749  -2.348  -3.339  0.00  0.00     0.024 H 
ATOM     38  H   LIG d   1       7.940  -3.669  -3.410  0.00  0.00     0.024 H 
ENDBRANCH   3  35
BRANCH   1  39
ATOM     39  C   LIG d   1       6.658  -7.374  -5.822  0.00  0.00    -0.045 C 
ATOM     40  H   LIG d   1       7.460  -7.407  -6.559  0.00  0.00     0.024 H 
ATOM     41  H   LIG d   1       7.025  -7.757  -4.869  0.00  0.00     0.024 H 
ATOM     42  H   LIG d   1       5.825  -7.989  -6.163  0.00  0.00     0.024 H 
ENDBRANCH   1  39
TORSDOF 5
ENDMDL
MODEL 8
REMARK VINA RESULT:      -5.7      3.474      4.527
REMARK  5 active torsions:
REMARK  status: ('A' for Active; 'I' for Inactive)
REMARK    1  A    between atoms: C_1  and  C_2 
REMARK    2  A    between atoms: C_4  and  C_22 
REMARK    3  A    between atoms: C_4  and  C_23 
REMARK    4  A    between atoms: C_5  and  C_10 
REMARK       I    between atoms: N_12  and  C_19 
REMARK    5  A    between atoms: C_19  and  C_21 
ROOT
ATOM      1  C   LIG d   1      10.662  -0.326  -5.263  0.00  0.00     0.112 C 
ATOM      2  C   LIG d   1      10.053   0.803  -4.859  0.00  0.00     0.156 C 
ATOM      3  C   LIG d   1       8.552   0.925  -4.954  0.00  0.00     0.065 C 
ATOM      4  C   LIG d   1       7.933  -0.474  -4.859  0.00  0.00     0.142 C 
ATOM      5  H   LIG d   1       8.097  -0.884  -3.863  0.00  0.00     0.080 H 
ATOM      6  O   LIG d   1       8.557  -1.318  -5.834  0.00  0.00    -0.455 OA
ATOM      7  C   LIG d   1       9.904  -1.406  -5.772  0.00  0.00     0.318 C 
ATOM      8  O   LIG d   1      10.465  -2.416  -6.156  0.00  0.00    -0.250 OA
ATOM      9  O   LIG d   1      10.782   1.825  -4.370  0.00  0.00    -0.296 OA
ATOM     10  H   LIG d   1      10.251  -0.655  -4.413  0.00  0.00     0.049 H 
ENDROOT
BRANCH   4  11
ATOM     11  C   LIG d   1       6.453  -0.392  -5.136  0.00  0.00     0.019 A 
ATOM     12  C   LIG d   1       5.380  -0.386  -4.136  0.00  0.00     0.007 A 
ATOM     13  C   LIG d   1       4.175  -0.296  -4.855  0.00  0.00     0.057 A 
ATOM     14  C   LIG d   1       5.355  -0.445  -2.742  0.00  0.00    -0.052 A 
ATOM     15  N   LIG d   1       4.506  -0.253  -6.198  0.00  0.00    -0.287 N 
ATOM     16  C   LIG d   1       2.969  -0.269  -4.168  0.00  0.00    -0.037 A 
ATOM     17  C   LIG d   1       5.872  -0.312  -6.340  0.00  0.00     0.020 A 
ATOM     18  C   LIG d   1       3.623  -0.168  -7.212  0.00  0.00     0.229 C 
ATOM     19  H   LIG d   1       6.400  -0.296  -7.283  0.00  0.00     0.082 H 
ATOM     20  O   LIG d   1       2.434  -0.121  -6.979  0.00  0.00    -0.273 OA
ATOM     21  C   LIG d   1       2.960  -0.329  -2.791  0.00  0.00    -0.060 A 
ATOM     22  H   LIG d   1       2.038  -0.201  -4.712  0.00  0.00     0.064 H 
ATOM     23  C   LIG d   1       4.148  -0.422  -2.080  0.00  0.00    -0.061 A 
ATOM     24  H   LIG d   1       2.020  -0.308  -2.260  0.00  0.00     0.062 H 
ATOM     25  H   LIG d   1       4.126  -0.471  -1.002  0.00  0.00     0.062 H 
ATOM     26  H   LIG d   1       6.279  -0.513  -2.186  0.00  0.00     0.062 H 
BRANCH  18  27
ATOM     27  C   LIG d   1       4.113  -0.129  -8.637  0.00  0.00     0.015 C 
ATOM     28  H   LIG d   1       4.334   0.901  -8.918  0.00  0.00     0.033 H 
ATOM     29  H   LIG d   1       5.016  -0.732  -8.728  0.00  0.00     0.033 H 
ATOM     30  H   LIG d   1       3.343  -0.528  -9.297  0.00  0.00     0.033 H 
ENDBRANCH  18  27
ENDBRANCH   4  11
BRANCH   3  31
ATOM     31  C   LIG d   1       8.174   1.563  -6.292  0.00  0.00    -0.049 C 
ATOM     32  H   LIG d   1       7.798   2.571  -6.119  0.00  0.00     0.024 H 
ATOM     33  H   LIG d   1       9.053   1.608  -6.934  0.00  0.00     0.024 H 
ATOM     34  H   LIG d   1       7.401   0.965  -6.775  0.00  0.00     0.024 H 
ENDBRANCH   3  31
BRANCH   3  35
ATOM     35  C   LIG d   1       8.034   1.793  -3.805  0.00  0.00    -0.049 C 
ATOM     36  H   LIG d   1       8.771   1.807  -3.001  0.00  0.00     0.024 H 
ATOM     37  H   LIG d   1       7.867   2.809  -4.164  0.00  0.00     0.024 H 
ATOM     38  H   LIG d   1       7.097   1.380  -3.433  0.00  0.00     0.024 H 
ENDBRANCH   3  35
BRANCH   1  39
ATOM     39  C   LIG d   1      12.162  -0.441  -5.173  0.00  0.00    -0.045 C 
ATOM     40  H   LIG d   1      12.427  -1.384  -4.697  0.00  0.00     0.024 H 
ATOM     41  H   LIG d   1      12.589  -0.407  -6.175  0.00  0.00     0.024 H 
ATOM     42  H   LIG d   1      12.555   0.388  -4.583  0.00  0.00     0.024 H 
ENDBRANCH   1  39
TORSDOF 5
ENDMDL
MODEL 9
REMARK VINA RESULT:      -5.7      1.659      2.450
REMARK  5 active torsions:
REMARK  status: ('A' for Active; 'I' for Inactive)
REMARK    1  A    between atoms: C_1  and  C_2 
REMARK    2  A    between atoms: C_4  and  C_22 
REMARK    3  A    between atoms: C_4  and  C_23 
REMARK    4  A    between atoms: C_5  and  C_10 
REMARK       I    between atoms: N_12  and  C_19 
REMARK    5  A    between atoms: C_19  and  C_21 
ROOT
ATOM      1  C   LIG d   1       8.503  -5.194  -4.800  0.00  0.00     0.112 C 
ATOM      2  C   LIG d   1       7.652  -5.362  -5.828  0.00  0.00     0.156 C 
ATOM      3  C   LIG d   1       6.552  -4.357  -6.068  0.00  0.00     0.065 C 
ATOM      4  C   LIG d   1       6.998  -2.994  -5.527  0.00  0.00     0.142 C 
ATOM      5  H   LIG d   1       7.829  -2.615  -6.121  0.00  0.00     0.080 H 
ATOM      6  O   LIG d   1       7.414  -3.156  -4.166  0.00  0.00    -0.455 OA
ATOM      7  C   LIG d   1       8.377  -4.076  -3.942  0.00  0.00     0.318 C 
ATOM      8  O   LIG d   1       9.137  -3.944  -3.001  0.00  0.00    -0.250 OA
ATOM      9  O   LIG d   1       7.782  -6.427  -6.644  0.00  0.00    -0.296 OA
ATOM     10  H   LIG d   1       8.838  -4.478  -5.411  0.00  0.00     0.049 H 
ENDROOT
BRANCH   4  11
ATOM     11  C   LIG d   1       5.845  -2.024  -5.591  0.00  0.00     0.019 A 
ATOM     12  C   LIG d   1       4.890  -1.737  -4.516  0.00  0.00     0.007 A 
ATOM     13  C   LIG d   1       4.001  -0.775  -5.029  0.00  0.00     0.057 A 
ATOM     14  C   LIG d   1       4.732  -2.203  -3.211  0.00  0.00    -0.052 A 
ATOM     15  N   LIG d   1       4.398  -0.507  -6.327  0.00  0.00    -0.287 N 
ATOM     16  C   LIG d   1       2.971  -0.301  -4.229  0.00  0.00    -0.037 A 
ATOM     17  C   LIG d   1       5.502  -1.265  -6.640  0.00  0.00     0.020 A 
ATOM     18  C   LIG d   1       3.794   0.365  -7.158  0.00  0.00     0.229 C 
ATOM     19  H   LIG d   1       6.015  -1.251  -7.590  0.00  0.00     0.082 H 
ATOM     20  O   LIG d   1       2.823   0.987  -6.785  0.00  0.00    -0.273 OA
ATOM     21  C   LIG d   1       2.827  -0.772  -2.941  0.00  0.00    -0.060 A 
ATOM     22  H   LIG d   1       2.283   0.438  -4.614  0.00  0.00     0.064 H 
ATOM     23  C   LIG d   1       3.700  -1.723  -2.435  0.00  0.00    -0.061 A 
ATOM     24  H   LIG d   1       2.024  -0.399  -2.322  0.00  0.00     0.062 H 
ATOM     25  H   LIG d   1       3.574  -2.086  -1.426  0.00  0.00     0.062 H 
ATOM     26  H   LIG d   1       5.413  -2.941  -2.813  0.00  0.00     0.062 H 
BRANCH  18  27
ATOM     27  C   LIG d   1       4.326   0.568  -8.554  0.00  0.00     0.015 C 
ATOM     28  H   LIG d   1       3.541   0.352  -9.278  0.00  0.00     0.033 H 
ATOM     29  H   LIG d   1       4.655   1.600  -8.672  0.00  0.00     0.033 H 
ATOM     30  H   LIG d   1       5.169  -0.103  -8.722  0.00  0.00     0.033 H 
ENDBRANCH  18  27
ENDBRANCH   4  11
BRANCH   3  31
ATOM     31  C   LIG d   1       5.282  -4.807  -5.344  0.00  0.00    -0.049 C 
ATOM     32  H   LIG d   1       4.415  -4.335  -5.806  0.00  0.00     0.024 H 
ATOM     33  H   LIG d   1       5.187  -5.890  -5.414  0.00  0.00     0.024 H 
ATOM     34  H   LIG d   1       5.339  -4.514  -4.295  0.00  0.00     0.024 H 
ENDBRANCH   3  31
BRANCH   3  35
ATOM     35  C   LIG d   1       6.277  -4.248  -7.570  0.00  0.00    -0.049 C 
ATOM     36  H   LIG d   1       5.564  -5.018  -7.865  0.00  0.00     0.024 H 
ATOM     37  H   LIG d   1       5.862  -3.264  -7.792  0.00  0.00     0.024 H 
ATOM     38  H   LIG d   1       7.207  -4.383  -8.120  0.00  0.00     0.024 H 
ENDBRANCH   3  35
BRANCH   1  39
ATOM     39  C   LIG d   1       9.595  -6.204  -4.559  0.00  0.00    -0.045 C 
ATOM     40  H   LIG d   1      10.379  -5.753  -3.951  0.00  0.00     0.024 H 
ATOM     41  H   LIG d   1       9.182  -7.068  -4.039  0.00  0.00     0.024 H 
ATOM     42  H   LIG d   1      10.013  -6.522  -5.515  0.00  0.00     0.024 H 
ENDBRANCH   1  39
TORSDOF 5
ENDMDL
