MODEL 1
REMARK VINA RESULT:      -6.9      0.000      0.000
REMARK  4 active torsions:
REMARK  status: ('A' for Active; 'I' for Inactive)
REMARK    1  A    between atoms: C_1  and  O_2 
REMARK    2  A    between atoms: O_2  and  C_3 
REMARK    3  A    between atoms: C_7  and  C_9 
REMARK    4  A    between atoms: N_10  and  N_11 
ROOT
ATOM      1  N   LIG d   1       8.204   2.072  -5.074  0.00  0.00    -0.183 N 
ATOM      2  C   LIG d   1       8.219   1.800  -6.501  0.00  0.00     0.114 A 
ATOM      3  C   LIG d   1       9.161   2.699  -7.235  0.00  0.00     0.236 A 
ATOM      4  O   LIG d   1       9.269   2.548  -8.433  0.00  0.00    -0.274 OA
ATOM      5  N   LIG d   1       9.890   3.658  -6.660  0.00  0.00    -0.282 N 
ATOM      6  C   LIG d   1      10.853   4.419  -7.485  0.00  0.00     0.056 C 
ATOM      7  C   LIG d   1      10.700   5.879  -7.127  0.00  0.00     0.038 A 
ATOM      8  C   LIG d   1       9.991   6.318  -6.065  0.00  0.00    -0.015 A 
ATOM      9  C   LIG d   1      10.085   7.764  -6.059  0.00  0.00     0.003 A 
ATOM     10  C   LIG d   1       9.563   8.744  -5.211  0.00  0.00    -0.052 A 
ATOM     11  C   LIG d   1       9.861  10.050  -5.513  0.00  0.00    -0.061 A 
ATOM     12  C   LIG d   1      10.642  10.393  -6.605  0.00  0.00    -0.060 A 
ATOM     13  C   LIG d   1      11.172   9.443  -7.461  0.00  0.00    -0.038 A 
ATOM     14  C   LIG d   1      10.886   8.108  -7.179  0.00  0.00     0.047 A 
ATOM     15  N   LIG d   1      11.237   6.945  -7.800  0.00  0.00    -0.356 N 
ATOM     16  H   LIG d   1      11.786   6.882  -8.599  0.00  0.00     0.166 HD
ATOM     17  C   LIG d   1       9.255   5.426  -5.098  0.00  0.00     0.002 C 
ATOM     18  C   LIG d   1       9.792   3.995  -5.241  0.00  0.00     0.108 A 
ATOM     19  H   LIG d   1      10.788   3.960  -4.801  0.00  0.00     0.060 H 
ATOM     20  C   LIG d   1       8.904   3.049  -4.499  0.00  0.00     0.256 A 
ATOM     21  O   LIG d   1       8.814   3.179  -3.296  0.00  0.00    -0.272 OA
ATOM     22  H   LIG d   1       7.214   1.940  -6.899  0.00  0.00     0.058 H 
ATOM     23  H   LIG d   1       8.522   0.765  -6.661  0.00  0.00     0.058 H 
ATOM     24  H   LIG d   1      11.869   4.089  -7.267  0.00  0.00     0.053 H 
ATOM     25  H   LIG d   1      10.634   4.270  -8.542  0.00  0.00     0.053 H 
ATOM     26  H   LIG d   1       8.953   8.486  -4.358  0.00  0.00     0.062 H 
ATOM     27  H   LIG d   1       9.474  10.835  -4.880  0.00  0.00     0.062 H 
ATOM     28  H   LIG d   1      10.845  11.436  -6.795  0.00  0.00     0.062 H 
ATOM     29  H   LIG d   1      11.780   9.723  -8.309  0.00  0.00     0.064 H 
ATOM     30  H   LIG d   1       8.190   5.441  -5.327  0.00  0.00     0.034 H 
ATOM     31  H   LIG d   1       9.418   5.778  -4.080  0.00  0.00     0.034 H 
ENDROOT
BRANCH   1  32
ATOM     32  N   LIG d   1       7.409   1.259  -4.255  0.00  0.00    -0.184 NA
ATOM     33  C   LIG d   1       6.500   0.499  -4.784  0.00  0.00     0.053 C 
ATOM     34  H   LIG d   1       6.357   0.491  -5.854  0.00  0.00     0.085 H 
BRANCH  33  35
ATOM     35  C   LIG d   1       5.663  -0.357  -3.922  0.00  0.00    -0.002 A 
ATOM     36  C   LIG d   1       5.187   0.129  -2.702  0.00  0.00    -0.053 A 
ATOM     37  C   LIG d   1       4.403  -0.675  -1.899  0.00  0.00    -0.058 A 
ATOM     38  H   LIG d   1       5.433   1.132  -2.387  0.00  0.00     0.062 H 
ATOM     39  C   LIG d   1       4.086  -1.960  -2.299  0.00  0.00    -0.020 A 
ATOM     40  H   LIG d   1       4.037  -0.298  -0.956  0.00  0.00     0.062 H 
ATOM     41  C   LIG d   1       4.553  -2.451  -3.510  0.00  0.00     0.121 A 
ATOM     42  H   LIG d   1       3.472  -2.583  -1.666  0.00  0.00     0.065 H 
ATOM     43  C   LIG d   1       5.336  -1.653  -4.327  0.00  0.00    -0.011 A 
ATOM     44  H   LIG d   1       5.697  -2.033  -5.270  0.00  0.00     0.066 H 
BRANCH  41  45
ATOM     45  O   LIG d   1       4.238  -3.714  -3.898  0.00  0.00    -0.495 OA
BRANCH  45  46
ATOM     46  C   LIG d   1       4.866  -4.205  -5.084  0.00  0.00     0.079 C 
ATOM     47  H   LIG d   1       5.838  -4.629  -4.832  0.00  0.00     0.066 H 
ATOM     48  H   LIG d   1       4.240  -4.976  -5.534  0.00  0.00     0.066 H 
ATOM     49  H   LIG d   1       4.999  -3.386  -5.790  0.00  0.00     0.066 H 
ENDBRANCH  45  46
ENDBRANCH  41  45
ENDBRANCH  33  35
ENDBRANCH   1  32
TORSDOF 4
ENDMDL
MODEL 2
REMARK VINA RESULT:      -6.8      7.276      9.732
REMARK  4 active torsions:
REMARK  status: ('A' for Active; 'I' for Inactive)
REMARK    1  A    between atoms: C_1  and  O_2 
REMARK    2  A    between atoms: O_2  and  C_3 
REMARK    3  A    between atoms: C_7  and  C_9 
REMARK    4  A    between atoms: N_10  and  N_11 
ROOT
ATOM      1  N   LIG d   1       8.994  -5.316  -4.122  0.00  0.00    -0.183 N 
ATOM      2  C   LIG d   1       7.952  -6.135  -4.718  0.00  0.00     0.114 A 
ATOM      3  C   LIG d   1       6.868  -5.308  -5.329  0.00  0.00     0.236 A 
ATOM      4  O   LIG d   1       5.953  -5.887  -5.874  0.00  0.00    -0.274 OA
ATOM      5  N   LIG d   1       6.838  -3.973  -5.315  0.00  0.00    -0.282 N 
ATOM      6  C   LIG d   1       5.755  -3.271  -6.036  0.00  0.00     0.056 C 
ATOM      7  C   LIG d   1       5.247  -2.173  -5.131  0.00  0.00     0.038 A 
ATOM      8  C   LIG d   1       5.876  -1.786  -4.000  0.00  0.00    -0.015 A 
ATOM      9  C   LIG d   1       5.088  -0.716  -3.421  0.00  0.00     0.003 A 
ATOM     10  C   LIG d   1       5.245   0.059  -2.269  0.00  0.00    -0.052 A 
ATOM     11  C   LIG d   1       4.282   1.006  -2.022  0.00  0.00    -0.061 A 
ATOM     12  C   LIG d   1       3.201   1.195  -2.867  0.00  0.00    -0.060 A 
ATOM     13  C   LIG d   1       3.021   0.441  -4.014  0.00  0.00    -0.038 A 
ATOM     14  C   LIG d   1       3.983  -0.528  -4.291  0.00  0.00     0.047 A 
ATOM     15  N   LIG d   1       4.112  -1.427  -5.311  0.00  0.00    -0.356 N 
ATOM     16  H   LIG d   1       3.493  -1.521  -6.052  0.00  0.00     0.166 HD
ATOM     17  C   LIG d   1       7.156  -2.389  -3.482  0.00  0.00     0.002 C 
ATOM     18  C   LIG d   1       7.836  -3.159  -4.623  0.00  0.00     0.108 A 
ATOM     19  H   LIG d   1       8.247  -2.433  -5.324  0.00  0.00     0.060 H 
ATOM     20  C   LIG d   1       8.954  -3.986  -4.075  0.00  0.00     0.256 A 
ATOM     21  O   LIG d   1       9.885  -3.408  -3.553  0.00  0.00    -0.272 OA
ATOM     22  H   LIG d   1       7.519  -6.773  -3.947  0.00  0.00     0.058 H 
ATOM     23  H   LIG d   1       8.395  -6.764  -5.490  0.00  0.00     0.058 H 
ATOM     24  H   LIG d   1       6.142  -2.841  -6.959  0.00  0.00     0.053 H 
ATOM     25  H   LIG d   1       4.949  -3.969  -6.262  0.00  0.00     0.053 H 
ATOM     26  H   LIG d   1       6.085  -0.080  -1.603  0.00  0.00     0.062 H 
ATOM     27  H   LIG d   1       4.370   1.624  -1.140  0.00  0.00     0.062 H 
ATOM     28  H   LIG d   1       2.474   1.954  -2.623  0.00  0.00     0.062 H 
ATOM     29  H   LIG d   1       2.173   0.597  -4.666  0.00  0.00     0.064 H 
ATOM     30  H   LIG d   1       6.931  -3.073  -2.663  0.00  0.00     0.034 H 
ATOM     31  H   LIG d   1       7.817  -1.598  -3.129  0.00  0.00     0.034 H 
ENDROOT
BRANCH   1  32
ATOM     32  N   LIG d   1      10.106  -5.963  -3.566  0.00  0.00    -0.184 NA
ATOM     33  C   LIG d   1      10.005  -6.549  -2.412  0.00  0.00     0.053 C 
ATOM     34  H   LIG d   1       9.064  -6.538  -1.881  0.00  0.00     0.085 H 
BRANCH  33  35
ATOM     35  C   LIG d   1      11.174  -7.231  -1.826  0.00  0.00    -0.002 A 
ATOM     36  C   LIG d   1      12.347  -7.375  -2.572  0.00  0.00    -0.053 A 
ATOM     37  C   LIG d   1      13.440  -8.014  -2.020  0.00  0.00    -0.058 A 
ATOM     38  H   LIG d   1      12.398  -6.989  -3.579  0.00  0.00     0.062 H 
ATOM     39  C   LIG d   1      13.378  -8.509  -0.731  0.00  0.00    -0.020 A 
ATOM     40  H   LIG d   1      14.345  -8.125  -2.598  0.00  0.00     0.062 H 
ATOM     41  C   LIG d   1      12.217  -8.370   0.017  0.00  0.00     0.121 A 
ATOM     42  H   LIG d   1      14.237  -9.007  -0.306  0.00  0.00     0.065 H 
ATOM     43  C   LIG d   1      11.116  -7.727  -0.523  0.00  0.00    -0.011 A 
ATOM     44  H   LIG d   1      10.214  -7.615   0.060  0.00  0.00     0.066 H 
BRANCH  41  45
ATOM     45  O   LIG d   1      12.163  -8.859   1.284  0.00  0.00    -0.495 OA
BRANCH  45  46
ATOM     46  C   LIG d   1      11.160  -8.318   2.146  0.00  0.00     0.079 C 
ATOM     47  H   LIG d   1      10.830  -9.084   2.847  0.00  0.00     0.066 H 
ATOM     48  H   LIG d   1      11.574  -7.474   2.699  0.00  0.00     0.066 H 
ATOM     49  H   LIG d   1      10.312  -7.981   1.550  0.00  0.00     0.066 H 
ENDBRANCH  45  46
ENDBRANCH  41  45
ENDBRANCH  33  35
ENDBRANCH   1  32
TORSDOF 4
ENDMDL
MODEL 3
REMARK VINA RESULT:      -6.8      7.417     10.018
REMARK  4 active torsions:
REMARK  status: ('A' for Active; 'I' for Inactive)
REMARK    1  A    between atoms: C_1  and  O_2 
REMARK    2  A    between atoms: O_2  and  C_3 
REMARK    3  A    between atoms: C_7  and  C_9 
REMARK    4  A    between atoms: N_10  and  N_11 
ROOT
ATOM      1  N   LIG d   1       6.076  -6.391  -5.793  0.00  0.00    -0.183 N 
ATOM      2  C   LIG d   1       4.839  -6.453  -6.553  0.00  0.00     0.114 A 
ATOM      3  C   LIG d   1       4.294  -5.094  -6.851  0.00  0.00     0.236 A 
ATOM      4  O   LIG d   1       3.271  -5.024  -7.499  0.00  0.00    -0.274 OA
ATOM      5  N   LIG d   1       4.856  -3.951  -6.451  0.00  0.00    -0.282 N 
ATOM      6  C   LIG d   1       4.265  -2.668  -6.890  0.00  0.00     0.056 C 
ATOM      7  C   LIG d   1       4.215  -1.758  -5.686  0.00  0.00     0.038 A 
ATOM      8  C   LIG d   1       4.843  -2.025  -4.521  0.00  0.00    -0.015 A 
ATOM      9  C   LIG d   1       4.560  -0.923  -3.623  0.00  0.00     0.003 A 
ATOM     10  C   LIG d   1       4.936  -0.654  -2.304  0.00  0.00    -0.052 A 
ATOM     11  C   LIG d   1       4.473   0.515  -1.753  0.00  0.00    -0.061 A 
ATOM     12  C   LIG d   1       3.669   1.395  -2.459  0.00  0.00    -0.060 A 
ATOM     13  C   LIG d   1       3.281   1.154  -3.766  0.00  0.00    -0.038 A 
ATOM     14  C   LIG d   1       3.737  -0.026  -4.352  0.00  0.00     0.047 A 
ATOM     15  N   LIG d   1       3.549  -0.564  -5.593  0.00  0.00    -0.356 N 
ATOM     16  H   LIG d   1       3.023  -0.161  -6.302  0.00  0.00     0.166 HD
ATOM     17  C   LIG d   1       5.670  -3.256  -4.255  0.00  0.00     0.002 C 
ATOM     18  C   LIG d   1       6.042  -3.900  -5.598  0.00  0.00     0.108 A 
ATOM     19  H   LIG d   1       6.794  -3.273  -6.078  0.00  0.00     0.060 H 
ATOM     20  C   LIG d   1       6.624  -5.256  -5.362  0.00  0.00     0.256 A 
ATOM     21  O   LIG d   1       7.662  -5.328  -4.738  0.00  0.00    -0.272 OA
ATOM     22  H   LIG d   1       4.100  -7.014  -5.981  0.00  0.00     0.058 H 
ATOM     23  H   LIG d   1       5.027  -6.972  -7.493  0.00  0.00     0.058 H 
ATOM     24  H   LIG d   1       4.887  -2.222  -7.667  0.00  0.00     0.053 H 
ATOM     25  H   LIG d   1       3.258  -2.837  -7.273  0.00  0.00     0.053 H 
ATOM     26  H   LIG d   1       5.562  -1.334  -1.745  0.00  0.00     0.062 H 
ATOM     27  H   LIG d   1       4.743   0.756  -0.735  0.00  0.00     0.062 H 
ATOM     28  H   LIG d   1       3.334   2.299  -1.975  0.00  0.00     0.062 H 
ATOM     29  H   LIG d   1       2.654   1.847  -4.306  0.00  0.00     0.064 H 
ATOM     30  H   LIG d   1       5.092  -3.963  -3.660  0.00  0.00     0.034 H 
ATOM     31  H   LIG d   1       6.577  -2.979  -3.719  0.00  0.00     0.034 H 
ENDROOT
BRANCH   1  32
ATOM     32  N   LIG d   1       6.730  -7.594  -5.497  0.00  0.00    -0.184 NA
ATOM     33  C   LIG d   1       6.069  -8.579  -4.971  0.00  0.00     0.053 C 
ATOM     34  H   LIG d   1       5.015  -8.472  -4.762  0.00  0.00     0.085 H 
BRANCH  33  35
ATOM     35  C   LIG d   1       6.757  -9.846  -4.659  0.00  0.00    -0.002 A 
ATOM     36  C   LIG d   1       7.598 -10.438  -5.606  0.00  0.00    -0.053 A 
ATOM     37  C   LIG d   1       8.240 -11.623  -5.310  0.00  0.00    -0.058 A 
ATOM     38  H   LIG d   1       7.744  -9.969  -6.567  0.00  0.00     0.062 H 
ATOM     39  C   LIG d   1       8.056 -12.226  -4.080  0.00  0.00    -0.020 A 
ATOM     40  H   LIG d   1       8.889 -12.080  -6.042  0.00  0.00     0.062 H 
ATOM     41  C   LIG d   1       7.224 -11.645  -3.133  0.00  0.00     0.121 A 
ATOM     42  H   LIG d   1       8.563 -13.153  -3.855  0.00  0.00     0.065 H 
ATOM     43  C   LIG d   1       6.578 -10.454  -3.415  0.00  0.00    -0.011 A 
ATOM     44  H   LIG d   1       5.932 -10.000  -2.679  0.00  0.00     0.066 H 
BRANCH  41  45
ATOM     45  O   LIG d   1       7.047 -12.243  -1.926  0.00  0.00    -0.495 OA
BRANCH  45  46
ATOM     46  C   LIG d   1       6.439 -11.460  -0.896  0.00  0.00     0.079 C 
ATOM     47  H   LIG d   1       6.007 -12.119  -0.144  0.00  0.00     0.066 H 
ATOM     48  H   LIG d   1       7.193 -10.823  -0.432  0.00  0.00     0.066 H 
ATOM     49  H   LIG d   1       5.654 -10.839  -1.328  0.00  0.00     0.066 H 
ENDBRANCH  45  46
ENDBRANCH  41  45
ENDBRANCH  33  35
ENDBRANCH   1  32
TORSDOF 4
ENDMDL
MODEL 4
REMARK VINA RESULT:      -6.8      7.191     10.205
REMARK  4 active torsions:
REMARK  status: ('A' for Active; 'I' for Inactive)
REMARK    1  A    between atoms: C_1  and  O_2 
REMARK    2  A    between atoms: O_2  and  C_3 
REMARK    3  A    between atoms: C_7  and  C_9 
REMARK    4  A    between atoms: N_10  and  N_11 
ROOT
ATOM      1  N   LIG d   1       5.002  -6.303  -6.923  0.00  0.00    -0.183 N 
ATOM      2  C   LIG d   1       4.022  -5.823  -7.883  0.00  0.00     0.114 A 
ATOM      3  C   LIG d   1       3.941  -4.331  -7.905  0.00  0.00     0.236 A 
ATOM      4  O   LIG d   1       3.167  -3.818  -8.686  0.00  0.00    -0.274 OA
ATOM      5  N   LIG d   1       4.662  -3.525  -7.124  0.00  0.00    -0.282 N 
ATOM      6  C   LIG d   1       4.555  -2.062  -7.308  0.00  0.00     0.056 C 
ATOM      7  C   LIG d   1       4.443  -1.440  -5.935  0.00  0.00     0.038 A 
ATOM      8  C   LIG d   1       4.669  -2.116  -4.788  0.00  0.00    -0.015 A 
ATOM      9  C   LIG d   1       4.467  -1.183  -3.698  0.00  0.00     0.003 A 
ATOM     10  C   LIG d   1       4.558  -1.313  -2.310  0.00  0.00    -0.052 A 
ATOM     11  C   LIG d   1       4.293  -0.193  -1.562  0.00  0.00    -0.061 A 
ATOM     12  C   LIG d   1       3.948   1.016  -2.144  0.00  0.00    -0.060 A 
ATOM     13  C   LIG d   1       3.850   1.173  -3.516  0.00  0.00    -0.038 A 
ATOM     14  C   LIG d   1       4.115   0.053  -4.301  0.00  0.00     0.047 A 
ATOM     15  N   LIG d   1       4.109  -0.142  -5.652  0.00  0.00    -0.356 N 
ATOM     16  H   LIG d   1       3.900   0.538  -6.312  0.00  0.00     0.166 HD
ATOM     17  C   LIG d   1       5.054  -3.571  -4.712  0.00  0.00     0.002 C 
ATOM     18  C   LIG d   1       5.570  -4.017  -6.088  0.00  0.00     0.108 A 
ATOM     19  H   LIG d   1       6.554  -3.575  -6.242  0.00  0.00     0.060 H 
ATOM     20  C   LIG d   1       5.701  -5.506  -6.117  0.00  0.00     0.256 A 
ATOM     21  O   LIG d   1       6.495  -6.021  -5.358  0.00  0.00    -0.272 OA
ATOM     22  H   LIG d   1       3.044  -6.227  -7.622  0.00  0.00     0.058 H 
ATOM     23  H   LIG d   1       4.297  -6.177  -8.877  0.00  0.00     0.058 H 
ATOM     24  H   LIG d   1       5.444  -1.686  -7.814  0.00  0.00     0.053 H 
ATOM     25  H   LIG d   1       3.667  -1.827  -7.896  0.00  0.00     0.053 H 
ATOM     26  H   LIG d   1       4.826  -2.252  -1.847  0.00  0.00     0.062 H 
ATOM     27  H   LIG d   1       4.353  -0.257  -0.485  0.00  0.00     0.062 H 
ATOM     28  H   LIG d   1       3.749   1.864  -1.507  0.00  0.00     0.062 H 
ATOM     29  H   LIG d   1       3.580   2.121  -3.958  0.00  0.00     0.064 H 
ATOM     30  H   LIG d   1       4.183  -4.166  -4.439  0.00  0.00     0.034 H 
ATOM     31  H   LIG d   1       5.838  -3.704  -3.968  0.00  0.00     0.034 H 
ENDROOT
BRANCH   1  32
ATOM     32  N   LIG d   1       5.226  -7.684  -6.843  0.00  0.00    -0.184 NA
ATOM     33  C   LIG d   1       4.372  -8.511  -7.364  0.00  0.00     0.053 C 
ATOM     34  H   LIG d   1       3.489  -8.135  -7.861  0.00  0.00     0.085 H 
BRANCH  33  35
ATOM     35  C   LIG d   1       4.607  -9.964  -7.279  0.00  0.00    -0.002 A 
ATOM     36  C   LIG d   1       4.294 -10.789  -8.363  0.00  0.00    -0.053 A 
ATOM     37  C   LIG d   1       4.515 -12.149  -8.281  0.00  0.00    -0.058 A 
ATOM     38  H   LIG d   1       3.879 -10.362  -9.264  0.00  0.00     0.062 H 
ATOM     39  C   LIG d   1       5.047 -12.698  -7.129  0.00  0.00    -0.020 A 
ATOM     40  H   LIG d   1       4.273 -12.784  -9.119  0.00  0.00     0.062 H 
ATOM     41  C   LIG d   1       5.361 -11.887  -6.047  0.00  0.00     0.121 A 
ATOM     42  H   LIG d   1       5.218 -13.763  -7.071  0.00  0.00     0.065 H 
ATOM     43  C   LIG d   1       5.148 -10.521  -6.119  0.00  0.00    -0.011 A 
ATOM     44  H   LIG d   1       5.396  -9.889  -5.279  0.00  0.00     0.066 H 
BRANCH  41  45
ATOM     45  O   LIG d   1       5.883 -12.433  -4.917  0.00  0.00    -0.495 OA
BRANCH  45  46
ATOM     46  C   LIG d   1       6.087 -11.556  -3.807  0.00  0.00     0.079 C 
ATOM     47  H   LIG d   1       7.149 -11.510  -3.570  0.00  0.00     0.066 H 
ATOM     48  H   LIG d   1       5.727 -10.559  -4.061  0.00  0.00     0.066 H 
ATOM     49  H   LIG d   1       5.538 -11.932  -2.943  0.00  0.00     0.066 H 
ENDBRANCH  45  46
ENDBRANCH  41  45
ENDBRANCH  33  35
ENDBRANCH   1  32
TORSDOF 4
ENDMDL
MODEL 5
REMARK VINA RESULT:      -6.8      4.473      5.496
REMARK  4 active torsions:
REMARK  status: ('A' for Active; 'I' for Inactive)
REMARK    1  A    between atoms: C_1  and  O_2 
REMARK    2  A    between atoms: O_2  and  C_3 
REMARK    3  A    between atoms: C_7  and  C_9 
REMARK    4  A    between atoms: N_10  and  N_11 
ROOT
ATOM      1  N   LIG d   1       8.441   1.720  -6.419  0.00  0.00    -0.183 N 
ATOM      2  C   LIG d   1       9.728   1.692  -7.093  0.00  0.00     0.114 A 
ATOM      3  C   LIG d   1      10.863   1.914  -6.145  0.00  0.00     0.236 A 
ATOM      4  O   LIG d   1      11.988   1.892  -6.595  0.00  0.00    -0.274 OA
ATOM      5  N   LIG d   1      10.720   2.137  -4.837  0.00  0.00    -0.282 N 
ATOM      6  C   LIG d   1      11.929   2.251  -3.992  0.00  0.00     0.056 C 
ATOM      7  C   LIG d   1      11.728   3.434  -3.073  0.00  0.00     0.038 A 
ATOM      8  C   LIG d   1      10.545   4.066  -2.917  0.00  0.00    -0.015 A 
ATOM      9  C   LIG d   1      10.758   5.134  -1.960  0.00  0.00     0.003 A 
ATOM     10  C   LIG d   1       9.909   6.103  -1.418  0.00  0.00    -0.052 A 
ATOM     11  C   LIG d   1      10.463   6.978  -0.516  0.00  0.00    -0.061 A 
ATOM     12  C   LIG d   1      11.797   6.914  -0.152  0.00  0.00    -0.060 A 
ATOM     13  C   LIG d   1      12.660   5.965  -0.674  0.00  0.00    -0.038 A 
ATOM     14  C   LIG d   1      12.126   5.063  -1.592  0.00  0.00     0.047 A 
ATOM     15  N   LIG d   1      12.680   4.025  -2.286  0.00  0.00    -0.356 N 
ATOM     16  H   LIG d   1      13.609   3.749  -2.228  0.00  0.00     0.166 HD
ATOM     17  C   LIG d   1       9.272   3.692  -3.631  0.00  0.00     0.002 C 
ATOM     18  C   LIG d   1       9.418   2.267  -4.186  0.00  0.00     0.108 A 
ATOM     19  H   LIG d   1       9.371   1.571  -3.349  0.00  0.00     0.060 H 
ATOM     20  C   LIG d   1       8.290   1.975  -5.121  0.00  0.00     0.256 A 
ATOM     21  O   LIG d   1       7.164   1.968  -4.669  0.00  0.00    -0.272 OA
ATOM     22  H   LIG d   1       9.746   2.470  -7.856  0.00  0.00     0.058 H 
ATOM     23  H   LIG d   1       9.855   0.722  -7.574  0.00  0.00     0.058 H 
ATOM     24  H   LIG d   1      12.056   1.342  -3.404  0.00  0.00     0.053 H 
ATOM     25  H   LIG d   1      12.805   2.412  -4.620  0.00  0.00     0.053 H 
ATOM     26  H   LIG d   1       8.867   6.160  -1.696  0.00  0.00     0.062 H 
ATOM     27  H   LIG d   1       9.837   7.741  -0.077  0.00  0.00     0.062 H 
ATOM     28  H   LIG d   1      12.179   7.628   0.561  0.00  0.00     0.062 H 
ATOM     29  H   LIG d   1      13.700   5.925  -0.383  0.00  0.00     0.064 H 
ATOM     30  H   LIG d   1       9.096   4.387  -4.452  0.00  0.00     0.034 H 
ATOM     31  H   LIG d   1       8.437   3.728  -2.933  0.00  0.00     0.034 H 
ENDROOT
BRANCH   1  32
ATOM     32  N   LIG d   1       7.293   1.463  -7.180  0.00  0.00    -0.184 NA
ATOM     33  C   LIG d   1       7.198   1.928  -8.388  0.00  0.00     0.053 C 
ATOM     34  H   LIG d   1       8.005   2.511  -8.808  0.00  0.00     0.085 H 
BRANCH  33  35
ATOM     35  C   LIG d   1       5.990   1.658  -9.190  0.00  0.00    -0.002 A 
ATOM     36  C   LIG d   1       4.893   2.520  -9.115  0.00  0.00    -0.053 A 
ATOM     37  C   LIG d   1       3.764   2.265  -9.867  0.00  0.00    -0.058 A 
ATOM     38  H   LIG d   1       4.928   3.385  -8.470  0.00  0.00     0.062 H 
ATOM     39  C   LIG d   1       3.715   1.159 -10.695  0.00  0.00    -0.020 A 
ATOM     40  H   LIG d   1       2.917   2.931  -9.808  0.00  0.00     0.062 H 
ATOM     41  C   LIG d   1       4.800   0.297 -10.777  0.00  0.00     0.121 A 
ATOM     42  H   LIG d   1       2.829   0.965 -11.281  0.00  0.00     0.065 H 
ATOM     43  C   LIG d   1       5.940   0.545 -10.031  0.00  0.00    -0.011 A 
ATOM     44  H   LIG d   1       6.786  -0.123 -10.096  0.00  0.00     0.066 H 
BRANCH  41  45
ATOM     45  O   LIG d   1       4.746  -0.788 -11.592  0.00  0.00    -0.495 OA
BRANCH  45  46
ATOM     46  C   LIG d   1       4.130  -0.610 -12.870  0.00  0.00     0.079 C 
ATOM     47  H   LIG d   1       3.603   0.343 -12.890  0.00  0.00     0.066 H 
ATOM     48  H   LIG d   1       4.896  -0.619 -13.646  0.00  0.00     0.066 H 
ATOM     49  H   LIG d   1       3.423  -1.421 -13.048  0.00  0.00     0.066 H 
ENDBRANCH  45  46
ENDBRANCH  41  45
ENDBRANCH  33  35
ENDBRANCH   1  32
TORSDOF 4
ENDMDL
MODEL 6
REMARK VINA RESULT:      -6.7      3.633      4.333
REMARK  4 active torsions:
REMARK  status: ('A' for Active; 'I' for Inactive)
REMARK    1  A    between atoms: C_1  and  O_2 
REMARK    2  A    between atoms: O_2  and  C_3 
REMARK    3  A    between atoms: C_7  and  C_9 
REMARK    4  A    between atoms: N_10  and  N_11 
ROOT
ATOM      1  N   LIG d   1       9.485   3.098  -3.966  0.00  0.00    -0.183 N 
ATOM      2  C   LIG d   1       9.020   4.034  -4.976  0.00  0.00     0.114 A 
ATOM      3  C   LIG d   1       9.743   5.340  -4.908  0.00  0.00     0.236 A 
ATOM      4  O   LIG d   1       9.450   6.192  -5.718  0.00  0.00    -0.274 OA
ATOM      5  N   LIG d   1      10.690   5.631  -4.013  0.00  0.00    -0.282 N 
ATOM      6  C   LIG d   1      11.394   6.928  -4.110  0.00  0.00     0.056 C 
ATOM      7  C   LIG d   1      11.478   7.502  -2.715  0.00  0.00     0.038 A 
ATOM      8  C   LIG d   1      11.183   6.801  -1.599  0.00  0.00    -0.015 A 
ATOM      9  C   LIG d   1      11.387   7.689  -0.473  0.00  0.00     0.003 A 
ATOM     10  C   LIG d   1      11.241   7.519   0.907  0.00  0.00    -0.052 A 
ATOM     11  C   LIG d   1      11.527   8.603   1.700  0.00  0.00    -0.061 A 
ATOM     12  C   LIG d   1      11.941   9.813   1.170  0.00  0.00    -0.060 A 
ATOM     13  C   LIG d   1      12.094  10.010  -0.192  0.00  0.00    -0.038 A 
ATOM     14  C   LIG d   1      11.810   8.927  -1.022  0.00  0.00     0.047 A 
ATOM     15  N   LIG d   1      11.852   8.776  -2.378  0.00  0.00    -0.356 N 
ATOM     16  H   LIG d   1      12.109   9.468  -3.008  0.00  0.00     0.166 HD
ATOM     17  C   LIG d   1      10.729   5.364  -1.585  0.00  0.00     0.002 C 
ATOM     18  C   LIG d   1      11.079   4.722  -2.936  0.00  0.00     0.108 A 
ATOM     19  H   LIG d   1      12.158   4.574  -2.972  0.00  0.00     0.060 H 
ATOM     20  C   LIG d   1      10.405   3.393  -3.051  0.00  0.00     0.256 A 
ATOM     21  O   LIG d   1      10.717   2.528  -2.259  0.00  0.00    -0.272 OA
ATOM     22  H   LIG d   1       7.954   4.211  -4.831  0.00  0.00     0.058 H 
ATOM     23  H   LIG d   1       9.174   3.595  -5.962  0.00  0.00     0.058 H 
ATOM     24  H   LIG d   1      12.397   6.776  -4.509  0.00  0.00     0.053 H 
ATOM     25  H   LIG d   1      10.837   7.604  -4.758  0.00  0.00     0.053 H 
ATOM     26  H   LIG d   1      10.919   6.578   1.329  0.00  0.00     0.062 H 
ATOM     27  H   LIG d   1      11.425   8.508   2.771  0.00  0.00     0.062 H 
ATOM     28  H   LIG d   1      12.152  10.632   1.841  0.00  0.00     0.062 H 
ATOM     29  H   LIG d   1      12.417  10.960  -0.593  0.00  0.00     0.064 H 
ATOM     30  H   LIG d   1       9.651   5.323  -1.430  0.00  0.00     0.034 H 
ATOM     31  H   LIG d   1      11.237   4.827  -0.784  0.00  0.00     0.034 H 
ENDROOT
BRANCH   1  32
ATOM     32  N   LIG d   1       8.933   1.810  -3.957  0.00  0.00    -0.184 NA
ATOM     33  C   LIG d   1       7.665   1.649  -3.734  0.00  0.00     0.053 C 
ATOM     34  H   LIG d   1       7.034   2.508  -3.558  0.00  0.00     0.085 H 
BRANCH  33  35
ATOM     35  C   LIG d   1       7.084   0.293  -3.724  0.00  0.00    -0.002 A 
ATOM     36  C   LIG d   1       7.709  -0.742  -4.424  0.00  0.00    -0.053 A 
ATOM     37  C   LIG d   1       7.163  -2.010  -4.412  0.00  0.00    -0.058 A 
ATOM     38  H   LIG d   1       8.618  -0.551  -4.975  0.00  0.00     0.062 H 
ATOM     39  C   LIG d   1       5.999  -2.259  -3.708  0.00  0.00    -0.020 A 
ATOM     40  H   LIG d   1       7.647  -2.809  -4.953  0.00  0.00     0.062 H 
ATOM     41  C   LIG d   1       5.372  -1.237  -3.009  0.00  0.00     0.121 A 
ATOM     42  H   LIG d   1       5.578  -3.253  -3.702  0.00  0.00     0.065 H 
ATOM     43  C   LIG d   1       5.912   0.037  -3.009  0.00  0.00    -0.011 A 
ATOM     44  H   LIG d   1       5.427   0.832  -2.463  0.00  0.00     0.066 H 
BRANCH  41  45
ATOM     45  O   LIG d   1       4.228  -1.488  -2.319  0.00  0.00    -0.495 OA
BRANCH  45  46
ATOM     46  C   LIG d   1       3.002  -1.068  -2.920  0.00  0.00     0.079 C 
ATOM     47  H   LIG d   1       2.402  -1.942  -3.172  0.00  0.00     0.066 H 
ATOM     48  H   LIG d   1       2.452  -0.438  -2.221  0.00  0.00     0.066 H 
ATOM     49  H   LIG d   1       3.217  -0.502  -3.827  0.00  0.00     0.066 H 
ENDBRANCH  45  46
ENDBRANCH  41  45
ENDBRANCH  33  35
ENDBRANCH   1  32
TORSDOF 4
ENDMDL
MODEL 7
REMARK VINA RESULT:      -6.6      7.183     10.870
REMARK  4 active torsions:
REMARK  status: ('A' for Active; 'I' for Inactive)
REMARK    1  A    between atoms: C_1  and  O_2 
REMARK    2  A    between atoms: O_2  and  C_3 
REMARK    3  A    between atoms: C_7  and  C_9 
REMARK    4  A    between atoms: N_10  and  N_11 
ROOT
ATOM      1  N   LIG d   1       3.538  -1.394  -8.183  0.00  0.00    -0.183 N 
ATOM      2  C   LIG d   1       3.994  -2.745  -8.466  0.00  0.00     0.114 A 
ATOM      3  C   LIG d   1       3.816  -3.108  -9.905  0.00  0.00     0.236 A 
ATOM      4  O   LIG d   1       4.182  -4.208 -10.260  0.00  0.00    -0.274 OA
ATOM      5  N   LIG d   1       3.282  -2.302 -10.826  0.00  0.00    -0.282 N 
ATOM      6  C   LIG d   1       3.246  -2.747 -12.236  0.00  0.00     0.056 C 
ATOM      7  C   LIG d   1       1.874  -2.423 -12.778  0.00  0.00     0.038 A 
ATOM      8  C   LIG d   1       0.982  -1.640 -12.134  0.00  0.00    -0.015 A 
ATOM      9  C   LIG d   1      -0.200  -1.567 -12.969  0.00  0.00     0.003 A 
ATOM     10  C   LIG d   1      -1.426  -0.913 -12.821  0.00  0.00    -0.052 A 
ATOM     11  C   LIG d   1      -2.339  -1.068 -13.834  0.00  0.00    -0.061 A 
ATOM     12  C   LIG d   1      -2.071  -1.835 -14.956  0.00  0.00    -0.060 A 
ATOM     13  C   LIG d   1      -0.866  -2.494 -15.128  0.00  0.00    -0.038 A 
ATOM     14  C   LIG d   1       0.081  -2.355 -14.115  0.00  0.00     0.047 A 
ATOM     15  N   LIG d   1       1.342  -2.857 -13.964  0.00  0.00    -0.356 N 
ATOM     16  H   LIG d   1       1.793  -3.433 -14.601  0.00  0.00     0.166 HD
ATOM     17  C   LIG d   1       1.221  -0.990 -10.796  0.00  0.00     0.002 C 
ATOM     18  C   LIG d   1       2.730  -0.985 -10.512  0.00  0.00     0.108 A 
ATOM     19  H   LIG d   1       3.196  -0.244 -11.162  0.00  0.00     0.060 H 
ATOM     20  C   LIG d   1       2.974  -0.598  -9.089  0.00  0.00     0.256 A 
ATOM     21  O   LIG d   1       2.635   0.513  -8.737  0.00  0.00    -0.272 OA
ATOM     22  H   LIG d   1       3.428  -3.446  -7.852  0.00  0.00     0.058 H 
ATOM     23  H   LIG d   1       5.050  -2.823  -8.210  0.00  0.00     0.058 H 
ATOM     24  H   LIG d   1       4.007  -2.218 -12.810  0.00  0.00     0.053 H 
ATOM     25  H   LIG d   1       3.423  -3.822 -12.289  0.00  0.00     0.053 H 
ATOM     26  H   LIG d   1      -1.645  -0.312 -11.950  0.00  0.00     0.062 H 
ATOM     27  H   LIG d   1      -3.298  -0.577 -13.754  0.00  0.00     0.062 H 
ATOM     28  H   LIG d   1      -2.826  -1.922 -15.722  0.00  0.00     0.062 H 
ATOM     29  H   LIG d   1      -0.668  -3.090 -16.007  0.00  0.00     0.064 H 
ATOM     30  H   LIG d   1       0.706  -1.553 -10.018  0.00  0.00     0.034 H 
ATOM     31  H   LIG d   1       0.850   0.035 -10.815  0.00  0.00     0.034 H 
ENDROOT
BRANCH   1  32
ATOM     32  N   LIG d   1       3.703  -0.901  -6.882  0.00  0.00    -0.184 NA
ATOM     33  C   LIG d   1       4.277  -1.635  -5.978  0.00  0.00     0.053 C 
ATOM     34  H   LIG d   1       4.629  -2.625  -6.229  0.00  0.00     0.085 H 
BRANCH  33  35
ATOM     35  C   LIG d   1       4.451  -1.116  -4.609  0.00  0.00    -0.002 A 
ATOM     36  C   LIG d   1       3.737  -1.682  -3.549  0.00  0.00    -0.053 A 
ATOM     37  C   LIG d   1       3.904  -1.195  -2.269  0.00  0.00    -0.058 A 
ATOM     38  H   LIG d   1       3.057  -2.500  -3.732  0.00  0.00     0.062 H 
ATOM     39  C   LIG d   1       4.775  -0.148  -2.030  0.00  0.00    -0.020 A 
ATOM     40  H   LIG d   1       3.352  -1.633  -1.451  0.00  0.00     0.062 H 
ATOM     41  C   LIG d   1       5.489   0.420  -3.077  0.00  0.00     0.121 A 
ATOM     42  H   LIG d   1       4.901   0.227  -1.026  0.00  0.00     0.065 H 
ATOM     43  C   LIG d   1       5.335  -0.063  -4.364  0.00  0.00    -0.011 A 
ATOM     44  H   LIG d   1       5.892   0.376  -5.178  0.00  0.00     0.066 H 
BRANCH  41  45
ATOM     45  O   LIG d   1       6.344   1.448  -2.836  0.00  0.00    -0.495 OA
BRANCH  45  46
ATOM     46  C   LIG d   1       7.452   1.594  -3.727  0.00  0.00     0.079 C 
ATOM     47  H   LIG d   1       7.223   2.356  -4.471  0.00  0.00     0.066 H 
ATOM     48  H   LIG d   1       8.335   1.891  -3.162  0.00  0.00     0.066 H 
ATOM     49  H   LIG d   1       7.642   0.644  -4.227  0.00  0.00     0.066 H 
ENDBRANCH  45  46
ENDBRANCH  41  45
ENDBRANCH  33  35
ENDBRANCH   1  32
TORSDOF 4
ENDMDL
MODEL 8
REMARK VINA RESULT:      -6.6      6.894      8.582
REMARK  4 active torsions:
REMARK  status: ('A' for Active; 'I' for Inactive)
REMARK    1  A    between atoms: C_1  and  O_2 
REMARK    2  A    between atoms: O_2  and  C_3 
REMARK    3  A    between atoms: C_7  and  C_9 
REMARK    4  A    between atoms: N_10  and  N_11 
ROOT
ATOM      1  N   LIG d   1       7.280  -3.269  -4.322  0.00  0.00    -0.183 N 
ATOM      2  C   LIG d   1       7.101  -2.222  -3.329  0.00  0.00     0.114 A 
ATOM      3  C   LIG d   1       5.949  -1.329  -3.657  0.00  0.00     0.236 A 
ATOM      4  O   LIG d   1       5.693  -0.430  -2.885  0.00  0.00    -0.274 OA
ATOM      5  N   LIG d   1       5.181  -1.455  -4.742  0.00  0.00    -0.282 N 
ATOM      6  C   LIG d   1       4.014  -0.561  -4.903  0.00  0.00     0.056 C 
ATOM      7  C   LIG d   1       4.011  -0.074  -6.333  0.00  0.00     0.038 A 
ATOM      8  C   LIG d   1       4.795  -0.596  -7.301  0.00  0.00    -0.015 A 
ATOM      9  C   LIG d   1       4.501   0.128  -8.522  0.00  0.00     0.003 A 
ATOM     10  C   LIG d   1       4.997   0.030  -9.825  0.00  0.00    -0.052 A 
ATOM     11  C   LIG d   1       4.478   0.899 -10.753  0.00  0.00    -0.061 A 
ATOM     12  C   LIG d   1       3.510   1.834 -10.427  0.00  0.00    -0.060 A 
ATOM     13  C   LIG d   1       3.002   1.953  -9.145  0.00  0.00    -0.038 A 
ATOM     14  C   LIG d   1       3.509   1.084  -8.181  0.00  0.00     0.047 A 
ATOM     15  N   LIG d   1       3.240   0.933  -6.851  0.00  0.00    -0.356 N 
ATOM     16  H   LIG d   1       2.598   1.459  -6.348  0.00  0.00     0.166 HD
ATOM     17  C   LIG d   1       5.778  -1.719  -7.096  0.00  0.00     0.002 C 
ATOM     18  C   LIG d   1       5.432  -2.445  -5.788  0.00  0.00     0.108 A 
ATOM     19  H   LIG d   1       4.523  -3.023  -5.951  0.00  0.00     0.060 H 
ATOM     20  C   LIG d   1       6.540  -3.379  -5.423  0.00  0.00     0.256 A 
ATOM     21  O   LIG d   1       6.780  -4.298  -6.179  0.00  0.00    -0.272 OA
ATOM     22  H   LIG d   1       8.010  -1.623  -3.279  0.00  0.00     0.058 H 
ATOM     23  H   LIG d   1       6.927  -2.683  -2.357  0.00  0.00     0.058 H 
ATOM     24  H   LIG d   1       3.096  -1.111  -4.696  0.00  0.00     0.053 H 
ATOM     25  H   LIG d   1       4.100   0.286  -4.222  0.00  0.00     0.053 H 
ATOM     26  H   LIG d   1       5.751  -0.696 -10.089  0.00  0.00     0.062 H 
ATOM     27  H   LIG d   1       4.838   0.852 -11.771  0.00  0.00     0.062 H 
ATOM     28  H   LIG d   1       3.139   2.492 -11.198  0.00  0.00     0.062 H 
ATOM     29  H   LIG d   1       2.247   2.687  -8.902  0.00  0.00     0.064 H 
ATOM     30  H   LIG d   1       6.788  -1.314  -7.033  0.00  0.00     0.034 H 
ATOM     31  H   LIG d   1       5.714  -2.419  -7.929  0.00  0.00     0.034 H 
ENDROOT
BRANCH   1  32
ATOM     32  N   LIG d   1       8.289  -4.217  -4.107  0.00  0.00    -0.184 NA
ATOM     33  C   LIG d   1       9.098  -4.086  -3.100  0.00  0.00     0.053 C 
ATOM     34  H   LIG d   1       8.993  -3.247  -2.428  0.00  0.00     0.085 H 
BRANCH  33  35
ATOM     35  C   LIG d   1      10.160  -5.084  -2.873  0.00  0.00    -0.002 A 
ATOM     36  C   LIG d   1      11.337  -5.038  -3.626  0.00  0.00    -0.053 A 
ATOM     37  C   LIG d   1      12.329  -5.973  -3.410  0.00  0.00    -0.058 A 
ATOM     38  H   LIG d   1      11.469  -4.273  -4.376  0.00  0.00     0.062 H 
ATOM     39  C   LIG d   1      12.163  -6.954  -2.450  0.00  0.00    -0.020 A 
ATOM     40  H   LIG d   1      13.237  -5.937  -3.993  0.00  0.00     0.062 H 
ATOM     41  C   LIG d   1      10.998  -7.007  -1.697  0.00  0.00     0.121 A 
ATOM     42  H   LIG d   1      12.944  -7.682  -2.286  0.00  0.00     0.065 H 
ATOM     43  C   LIG d   1       9.998  -6.072  -1.901  0.00  0.00    -0.011 A 
ATOM     44  H   LIG d   1       9.093  -6.110  -1.313  0.00  0.00     0.066 H 
BRANCH  41  45
ATOM     45  O   LIG d   1      10.841  -7.974  -0.756  0.00  0.00    -0.495 OA
BRANCH  45  46
ATOM     46  C   LIG d   1      11.927  -8.179   0.151  0.00  0.00     0.079 C 
ATOM     47  H   LIG d   1      11.536  -8.358   1.152  0.00  0.00     0.066 H 
ATOM     48  H   LIG d   1      12.511  -9.041  -0.171  0.00  0.00     0.066 H 
ATOM     49  H   LIG d   1      12.562  -7.293   0.163  0.00  0.00     0.066 H 
ENDBRANCH  45  46
ENDBRANCH  41  45
ENDBRANCH  33  35
ENDBRANCH   1  32
TORSDOF 4
ENDMDL
MODEL 9
REMARK VINA RESULT:      -6.6      5.134      8.513
REMARK  4 active torsions:
REMARK  status: ('A' for Active; 'I' for Inactive)
REMARK    1  A    between atoms: C_1  and  O_2 
REMARK    2  A    between atoms: O_2  and  C_3 
REMARK    3  A    between atoms: C_7  and  C_9 
REMARK    4  A    between atoms: N_10  and  N_11 
ROOT
ATOM      1  N   LIG d   1      10.157   6.268  -6.652  0.00  0.00    -0.183 N 
ATOM      2  C   LIG d   1      10.838   4.999  -6.462  0.00  0.00     0.114 A 
ATOM      3  C   LIG d   1      10.743   4.516  -5.051  0.00  0.00     0.236 A 
ATOM      4  O   LIG d   1      11.261   3.453  -4.780  0.00  0.00    -0.274 OA
ATOM      5  N   LIG d   1      10.127   5.176  -4.068  0.00  0.00    -0.282 N 
ATOM      6  C   LIG d   1      10.024   4.545  -2.734  0.00  0.00     0.056 C 
ATOM      7  C   LIG d   1      10.367   5.600  -1.708  0.00  0.00     0.038 A 
ATOM      8  C   LIG d   1      10.480   6.915  -1.996  0.00  0.00    -0.015 A 
ATOM      9  C   LIG d   1      10.812   7.594  -0.760  0.00  0.00     0.003 A 
ATOM     10  C   LIG d   1      11.047   8.937  -0.450  0.00  0.00    -0.052 A 
ATOM     11  C   LIG d   1      11.343   9.229   0.858  0.00  0.00    -0.061 A 
ATOM     12  C   LIG d   1      11.410   8.249   1.834  0.00  0.00    -0.060 A 
ATOM     13  C   LIG d   1      11.183   6.912   1.555  0.00  0.00    -0.038 A 
ATOM     14  C   LIG d   1      10.879   6.585   0.235  0.00  0.00     0.047 A 
ATOM     15  N   LIG d   1      10.606   5.394  -0.375  0.00  0.00    -0.356 N 
ATOM     16  H   LIG d   1      10.585   4.532   0.070  0.00  0.00     0.166 HD
ATOM     17  C   LIG d   1      10.288   7.511  -3.367  0.00  0.00     0.002 C 
ATOM     18  C   LIG d   1       9.534   6.501  -4.244  0.00  0.00     0.108 A 
ATOM     19  H   LIG d   1       8.497   6.470  -3.910  0.00  0.00     0.060 H 
ATOM     20  C   LIG d   1       9.569   6.947  -5.670  0.00  0.00     0.256 A 
ATOM     21  O   LIG d   1       9.027   7.996  -5.950  0.00  0.00    -0.272 OA
ATOM     22  H   LIG d   1      11.890   5.118  -6.725  0.00  0.00     0.058 H 
ATOM     23  H   LIG d   1      10.391   4.255  -7.121  0.00  0.00     0.058 H 
ATOM     24  H   LIG d   1       9.008   4.186  -2.572  0.00  0.00     0.053 H 
ATOM     25  H   LIG d   1      10.727   3.715  -2.663  0.00  0.00     0.053 H 
ATOM     26  H   LIG d   1      10.996   9.708  -1.205  0.00  0.00     0.062 H 
ATOM     27  H   LIG d   1      11.531  10.256   1.135  0.00  0.00     0.062 H 
ATOM     28  H   LIG d   1      11.649   8.536   2.847  0.00  0.00     0.062 H 
ATOM     29  H   LIG d   1      11.239   6.156   2.325  0.00  0.00     0.064 H 
ATOM     30  H   LIG d   1      11.260   7.725  -3.811  0.00  0.00     0.034 H 
ATOM     31  H   LIG d   1       9.709   8.430  -3.289  0.00  0.00     0.034 H 
ENDROOT
BRANCH   1  32
ATOM     32  N   LIG d   1      10.114   6.807  -7.945  0.00  0.00    -0.184 NA
ATOM     33  C   LIG d   1       9.649   6.099  -8.928  0.00  0.00     0.053 C 
ATOM     34  H   LIG d   1       9.292   5.095  -8.750  0.00  0.00     0.085 H 
BRANCH  33  35
ATOM     35  C   LIG d   1       9.604   6.666 -10.289  0.00  0.00    -0.002 A 
ATOM     36  C   LIG d   1      10.186   7.909 -10.550  0.00  0.00    -0.053 A 
ATOM     37  C   LIG d   1      10.143   8.436 -11.824  0.00  0.00    -0.058 A 
ATOM     38  H   LIG d   1      10.670   8.456  -9.755  0.00  0.00     0.062 H 
ATOM     39  C   LIG d   1       9.525   7.737 -12.845  0.00  0.00    -0.020 A 
ATOM     40  H   LIG d   1      10.594   9.396 -12.025  0.00  0.00     0.062 H 
ATOM     41  C   LIG d   1       8.944   6.502 -12.596  0.00  0.00     0.121 A 
ATOM     42  H   LIG d   1       9.496   8.155 -13.840  0.00  0.00     0.065 H 
ATOM     43  C   LIG d   1       8.985   5.960 -11.323  0.00  0.00    -0.011 A 
ATOM     44  H   LIG d   1       8.537   4.998 -11.128  0.00  0.00     0.066 H 
BRANCH  41  45
ATOM     45  O   LIG d   1       8.338   5.820 -13.603  0.00  0.00    -0.495 OA
BRANCH  45  46
ATOM     46  C   LIG d   1       9.188   5.211 -14.578  0.00  0.00     0.079 C 
ATOM     47  H   LIG d   1       8.634   4.443 -15.115  0.00  0.00     0.066 H 
ATOM     48  H   LIG d   1       9.534   5.969 -15.281  0.00  0.00     0.066 H 
ATOM     49  H   LIG d   1      10.046   4.759 -14.080  0.00  0.00     0.066 H 
ENDBRANCH  45  46
ENDBRANCH  41  45
ENDBRANCH  33  35
ENDBRANCH   1  32
TORSDOF 4
ENDMDL
