MODEL 1
REMARK VINA RESULT:      -7.0      0.000      0.000
REMARK  4 active torsions:
REMARK  status: ('A' for Active; 'I' for Inactive)
REMARK    1  A    between atoms: C_1  and  C_2 
REMARK    2  A    between atoms: C_5  and  C_8 
REMARK    3  A    between atoms: C_10  and  C_25 
REMARK    4  A    between atoms: C_13  and  C_24 
ROOT
ATOM      1  C   LIG d   1       5.056  -3.486  -5.112  0.00  0.00     0.240 C 
ATOM      2  C   LIG d   1       4.491  -3.172  -6.487  0.00  0.00     0.087 A 
ATOM      3  C   LIG d   1       4.356  -1.983  -7.079  0.00  0.00    -0.016 A 
ATOM      4  C   LIG d   1       3.767  -2.234  -8.386  0.00  0.00     0.004 A 
ATOM      5  C   LIG d   1       3.404  -1.381  -9.432  0.00  0.00    -0.049 A 
ATOM      6  C   LIG d   1       2.864  -1.965 -10.550  0.00  0.00    -0.050 A 
ATOM      7  C   LIG d   1       2.683  -3.335 -10.647  0.00  0.00    -0.057 A 
ATOM      8  C   LIG d   1       3.033  -4.203  -9.628  0.00  0.00    -0.037 A 
ATOM      9  C   LIG d   1       3.584  -3.638  -8.479  0.00  0.00     0.050 A 
ATOM     10  N   LIG d   1       4.029  -4.180  -7.315  0.00  0.00    -0.336 N 
ATOM     11  C   LIG d   1       4.054  -5.591  -6.899  0.00  0.00     0.052 C 
ATOM     12  C   LIG d   1       4.816  -5.696  -5.572  0.00  0.00     0.104 C 
ATOM     13  H   LIG d   1       4.718  -6.693  -5.141  0.00  0.00     0.064 H 
ATOM     14  O   LIG d   1       4.337  -4.670  -4.671  0.00  0.00    -0.333 OA
ATOM     15  C   LIG d   1       6.295  -5.320  -5.778  0.00  0.00     0.080 C 
ATOM     16  O   LIG d   1       6.414  -3.928  -5.348  0.00  0.00    -0.337 OA
ATOM     17  H   LIG d   1       3.541  -0.311  -9.363  0.00  0.00     0.063 H 
ATOM     18  H   LIG d   1       2.253  -3.741 -11.552  0.00  0.00     0.062 H 
ATOM     19  H   LIG d   1       2.885  -5.269  -9.718  0.00  0.00     0.064 H 
ATOM     20  H   LIG d   1       3.035  -5.952  -6.766  0.00  0.00     0.052 H 
ATOM     21  H   LIG d   1       4.560  -6.187  -7.659  0.00  0.00     0.052 H 
ATOM     22  H   LIG d   1       6.935  -5.958  -5.169  0.00  0.00     0.059 H 
ATOM     23  H   LIG d   1       6.565  -5.412  -6.831  0.00  0.00     0.059 H 
ENDROOT
BRANCH   1  24
ATOM     24  C   LIG d   1       4.960  -2.332  -4.147  0.00  0.00     0.017 A 
ATOM     25  C   LIG d   1       3.753  -2.035  -3.543  0.00  0.00    -0.053 A 
ATOM     26  C   LIG d   1       3.667  -0.980  -2.655  0.00  0.00    -0.058 A 
ATOM     27  H   LIG d   1       2.878  -2.629  -3.763  0.00  0.00     0.062 H 
ATOM     28  C   LIG d   1       4.785  -0.215  -2.379  0.00  0.00    -0.050 A 
ATOM     29  H   LIG d   1       2.725  -0.749  -2.180  0.00  0.00     0.062 H 
ATOM     30  C   LIG d   1       5.992  -0.513  -2.984  0.00  0.00    -0.058 A 
ATOM     31  C   LIG d   1       6.080  -1.572  -3.867  0.00  0.00    -0.053 A 
ATOM     32  H   LIG d   1       6.867   0.081  -2.764  0.00  0.00     0.062 H 
ATOM     33  H   LIG d   1       7.023  -1.804  -4.340  0.00  0.00     0.062 H 
BRANCH  28  34
ATOM     34  C   LIG d   1       4.689   0.939  -1.415  0.00  0.00    -0.040 C 
ATOM     35  H   LIG d   1       5.596   1.540  -1.475  0.00  0.00     0.028 H 
ATOM     36  H   LIG d   1       3.827   1.556  -1.670  0.00  0.00     0.028 H 
ATOM     37  H   LIG d   1       4.574   0.556  -0.401  0.00  0.00     0.028 H 
ENDBRANCH  28  34
ENDBRANCH   1  24
BRANCH   3  38
ATOM     38  C   LIG d   1       4.739  -0.644  -6.505  0.00  0.00    -0.037 C 
ATOM     39  H   LIG d   1       4.938  -0.748  -5.439  0.00  0.00     0.028 H 
ATOM     40  H   LIG d   1       5.633  -0.276  -7.007  0.00  0.00     0.028 H 
ATOM     41  H   LIG d   1       3.922   0.062  -6.654  0.00  0.00     0.028 H 
ENDBRANCH   3  38
BRANCH   6  42
ATOM     42  C   LIG d   1       2.455  -1.092 -11.707  0.00  0.00    -0.040 C 
ATOM     43  H   LIG d   1       3.224  -0.340 -11.884  0.00  0.00     0.028 H 
ATOM     44  H   LIG d   1       2.334  -1.704 -12.600  0.00  0.00     0.028 H 
ATOM     45  H   LIG d   1       1.512  -0.598 -11.474  0.00  0.00     0.028 H 
ENDBRANCH   6  42
TORSDOF 4
ENDMDL
MODEL 2
REMARK VINA RESULT:      -5.9      2.555      4.748
REMARK  4 active torsions:
REMARK  status: ('A' for Active; 'I' for Inactive)
REMARK    1  A    between atoms: C_1  and  C_2 
REMARK    2  A    between atoms: C_5  and  C_8 
REMARK    3  A    between atoms: C_10  and  C_25 
REMARK    4  A    between atoms: C_13  and  C_24 
ROOT
ATOM      1  C   LIG d   1       4.994  -3.361  -5.390  0.00  0.00     0.240 C 
ATOM      2  C   LIG d   1       6.437  -3.701  -5.726  0.00  0.00     0.087 A 
ATOM      3  C   LIG d   1       7.532  -3.494  -4.993  0.00  0.00    -0.016 A 
ATOM      4  C   LIG d   1       8.653  -4.005  -5.767  0.00  0.00     0.004 A 
ATOM      5  C   LIG d   1      10.026  -4.059  -5.508  0.00  0.00    -0.049 A 
ATOM      6  C   LIG d   1      10.818  -4.622  -6.478  0.00  0.00    -0.050 A 
ATOM      7  C   LIG d   1      10.291  -5.115  -7.661  0.00  0.00    -0.057 A 
ATOM      8  C   LIG d   1       8.938  -5.074  -7.943  0.00  0.00    -0.037 A 
ATOM      9  C   LIG d   1       8.107  -4.508  -6.976  0.00  0.00     0.050 A 
ATOM     10  N   LIG d   1       6.764  -4.309  -6.925  0.00  0.00    -0.336 N 
ATOM     11  C   LIG d   1       5.739  -4.641  -7.926  0.00  0.00     0.052 C 
ATOM     12  C   LIG d   1       4.357  -4.379  -7.317  0.00  0.00     0.104 C 
ATOM     13  H   LIG d   1       3.574  -4.451  -8.072  0.00  0.00     0.064 H 
ATOM     14  O   LIG d   1       4.365  -3.084  -6.670  0.00  0.00    -0.333 OA
ATOM     15  C   LIG d   1       4.097  -5.352  -6.151  0.00  0.00     0.080 C 
ATOM     16  O   LIG d   1       4.404  -4.602  -4.933  0.00  0.00    -0.337 OA
ATOM     17  H   LIG d   1      10.444  -3.676  -4.589  0.00  0.00     0.063 H 
ATOM     18  H   LIG d   1      10.962  -5.548  -8.389  0.00  0.00     0.062 H 
ATOM     19  H   LIG d   1       8.541  -5.462  -8.870  0.00  0.00     0.064 H 
ATOM     20  H   LIG d   1       5.874  -4.018  -8.809  0.00  0.00     0.052 H 
ATOM     21  H   LIG d   1       5.823  -5.693  -8.201  0.00  0.00     0.052 H 
ATOM     22  H   LIG d   1       3.054  -5.666  -6.146  0.00  0.00     0.059 H 
ATOM     23  H   LIG d   1       4.752  -6.220  -6.231  0.00  0.00     0.059 H 
ENDROOT
BRANCH   1  24
ATOM     24  C   LIG d   1       4.859  -2.234  -4.399  0.00  0.00     0.017 A 
ATOM     25  C   LIG d   1       4.395  -2.488  -3.123  0.00  0.00    -0.053 A 
ATOM     26  C   LIG d   1       4.276  -1.455  -2.212  0.00  0.00    -0.058 A 
ATOM     27  H   LIG d   1       4.128  -3.495  -2.835  0.00  0.00     0.062 H 
ATOM     28  C   LIG d   1       4.611  -0.166  -2.582  0.00  0.00    -0.050 A 
ATOM     29  H   LIG d   1       3.917  -1.654  -1.213  0.00  0.00     0.062 H 
ATOM     30  C   LIG d   1       5.076   0.088  -3.859  0.00  0.00    -0.058 A 
ATOM     31  C   LIG d   1       5.200  -0.946  -4.768  0.00  0.00    -0.053 A 
ATOM     32  H   LIG d   1       5.343   1.094  -4.147  0.00  0.00     0.062 H 
ATOM     33  H   LIG d   1       5.562  -0.748  -5.766  0.00  0.00     0.062 H 
BRANCH  28  34
ATOM     34  C   LIG d   1       4.476   0.962  -1.591  0.00  0.00    -0.040 C 
ATOM     35  H   LIG d   1       3.572   0.820  -1.001  0.00  0.00     0.028 H 
ATOM     36  H   LIG d   1       5.344   0.972  -0.932  0.00  0.00     0.028 H 
ATOM     37  H   LIG d   1       4.415   1.910  -2.127  0.00  0.00     0.028 H 
ENDBRANCH  28  34
ENDBRANCH   1  24
BRANCH   3  38
ATOM     38  C   LIG d   1       7.595  -2.855  -3.629  0.00  0.00    -0.037 C 
ATOM     39  H   LIG d   1       7.167  -1.853  -3.677  0.00  0.00     0.028 H 
ATOM     40  H   LIG d   1       7.029  -3.458  -2.919  0.00  0.00     0.028 H 
ATOM     41  H   LIG d   1       8.633  -2.791  -3.306  0.00  0.00     0.028 H 
ENDBRANCH   3  38
BRANCH   6  42
ATOM     42  C   LIG d   1      12.304  -4.706  -6.250  0.00  0.00    -0.040 C 
ATOM     43  H   LIG d   1      12.780  -5.163  -7.117  0.00  0.00     0.028 H 
ATOM     44  H   LIG d   1      12.707  -3.704  -6.101  0.00  0.00     0.028 H 
ATOM     45  H   LIG d   1      12.503  -5.312  -5.366  0.00  0.00     0.028 H 
ENDBRANCH   6  42
TORSDOF 4
ENDMDL
MODEL 3
REMARK VINA RESULT:      -5.8      2.992      4.138
REMARK  4 active torsions:
REMARK  status: ('A' for Active; 'I' for Inactive)
REMARK    1  A    between atoms: C_1  and  C_2 
REMARK    2  A    between atoms: C_5  and  C_8 
REMARK    3  A    between atoms: C_10  and  C_25 
REMARK    4  A    between atoms: C_13  and  C_24 
ROOT
ATOM      1  C   LIG d   1       7.625  -2.523  -3.943  0.00  0.00     0.240 C 
ATOM      2  C   LIG d   1       7.016  -3.637  -4.778  0.00  0.00     0.087 A 
ATOM      3  C   LIG d   1       5.890  -3.619  -5.493  0.00  0.00    -0.016 A 
ATOM      4  C   LIG d   1       5.765  -4.934  -6.105  0.00  0.00     0.004 A 
ATOM      5  C   LIG d   1       4.800  -5.490  -6.949  0.00  0.00    -0.049 A 
ATOM      6  C   LIG d   1       4.998  -6.789  -7.348  0.00  0.00    -0.050 A 
ATOM      7  C   LIG d   1       6.099  -7.523  -6.937  0.00  0.00    -0.057 A 
ATOM      8  C   LIG d   1       7.069  -6.998  -6.101  0.00  0.00    -0.037 A 
ATOM      9  C   LIG d   1       6.895  -5.681  -5.679  0.00  0.00     0.050 A 
ATOM     10  N   LIG d   1       7.634  -4.871  -4.876  0.00  0.00    -0.336 N 
ATOM     11  C   LIG d   1       8.893  -5.161  -4.173  0.00  0.00     0.052 C 
ATOM     12  C   LIG d   1       9.413  -3.863  -3.544  0.00  0.00     0.104 C 
ATOM     13  H   LIG d   1      10.251  -4.058  -2.876  0.00  0.00     0.064 H 
ATOM     14  O   LIG d   1       8.322  -3.200  -2.863  0.00  0.00    -0.333 OA
ATOM     15  C   LIG d   1       9.801  -2.859  -4.646  0.00  0.00     0.080 C 
ATOM     16  O   LIG d   1       8.664  -1.947  -4.770  0.00  0.00    -0.337 OA
ATOM     17  H   LIG d   1       3.939  -4.925  -7.274  0.00  0.00     0.063 H 
ATOM     18  H   LIG d   1       6.204  -8.542  -7.282  0.00  0.00     0.062 H 
ATOM     19  H   LIG d   1       7.922  -7.583  -5.788  0.00  0.00     0.064 H 
ATOM     20  H   LIG d   1       8.714  -5.900  -3.392  0.00  0.00     0.052 H 
ATOM     21  H   LIG d   1       9.627  -5.545  -4.881  0.00  0.00     0.052 H 
ATOM     22  H   LIG d   1      10.695  -2.308  -4.357  0.00  0.00     0.059 H 
ATOM     23  H   LIG d   1       9.968  -3.379  -5.589  0.00  0.00     0.059 H 
ENDROOT
BRANCH   1  24
ATOM     24  C   LIG d   1       6.613  -1.513  -3.464  0.00  0.00     0.017 A 
ATOM     25  C   LIG d   1       5.548  -1.919  -2.683  0.00  0.00    -0.053 A 
ATOM     26  C   LIG d   1       4.622  -0.993  -2.240  0.00  0.00    -0.058 A 
ATOM     27  H   LIG d   1       5.439  -2.961  -2.417  0.00  0.00     0.062 H 
ATOM     28  C   LIG d   1       4.758   0.339  -2.586  0.00  0.00    -0.050 A 
ATOM     29  H   LIG d   1       3.791  -1.310  -1.627  0.00  0.00     0.062 H 
ATOM     30  C   LIG d   1       5.824   0.744  -3.367  0.00  0.00    -0.058 A 
ATOM     31  C   LIG d   1       6.752  -0.181  -3.805  0.00  0.00    -0.053 A 
ATOM     32  H   LIG d   1       5.933   1.786  -3.633  0.00  0.00     0.062 H 
ATOM     33  H   LIG d   1       7.585   0.136  -4.415  0.00  0.00     0.062 H 
BRANCH  28  34
ATOM     34  C   LIG d   1       3.746   1.348  -2.108  0.00  0.00    -0.040 C 
ATOM     35  H   LIG d   1       4.109   1.823  -1.197  0.00  0.00     0.028 H 
ATOM     36  H   LIG d   1       3.596   2.105  -2.878  0.00  0.00     0.028 H 
ATOM     37  H   LIG d   1       2.801   0.845  -1.904  0.00  0.00     0.028 H 
ENDBRANCH  28  34
ENDBRANCH   1  24
BRANCH   3  38
ATOM     38  C   LIG d   1       4.935  -2.464  -5.641  0.00  0.00    -0.037 C 
ATOM     39  H   LIG d   1       4.331  -2.603  -6.537  0.00  0.00     0.028 H 
ATOM     40  H   LIG d   1       4.284  -2.417  -4.768  0.00  0.00     0.028 H 
ATOM     41  H   LIG d   1       5.498  -1.535  -5.725  0.00  0.00     0.028 H 
ENDBRANCH   3  38
BRANCH   6  42
ATOM     42  C   LIG d   1       3.989  -7.436  -8.259  0.00  0.00    -0.040 C 
ATOM     43  H   LIG d   1       4.350  -7.400  -9.286  0.00  0.00     0.028 H 
ATOM     44  H   LIG d   1       3.843  -8.474  -7.961  0.00  0.00     0.028 H 
ATOM     45  H   LIG d   1       3.041  -6.901  -8.189  0.00  0.00     0.028 H 
ENDBRANCH   6  42
TORSDOF 4
ENDMDL
MODEL 4
REMARK VINA RESULT:      -5.8      1.648      5.977
REMARK  4 active torsions:
REMARK  status: ('A' for Active; 'I' for Inactive)
REMARK    1  A    between atoms: C_1  and  C_2 
REMARK    2  A    between atoms: C_5  and  C_8 
REMARK    3  A    between atoms: C_10  and  C_25 
REMARK    4  A    between atoms: C_13  and  C_24 
ROOT
ATOM      1  C   LIG d   1       4.624  -3.286  -7.772  0.00  0.00     0.240 C 
ATOM      2  C   LIG d   1       4.531  -2.442  -6.511  0.00  0.00     0.087 A 
ATOM      3  C   LIG d   1       3.976  -1.239  -6.355  0.00  0.00    -0.016 A 
ATOM      4  C   LIG d   1       4.152  -0.878  -4.956  0.00  0.00     0.004 A 
ATOM      5  C   LIG d   1       3.778   0.251  -4.223  0.00  0.00    -0.049 A 
ATOM      6  C   LIG d   1       4.108   0.264  -2.890  0.00  0.00    -0.050 A 
ATOM      7  C   LIG d   1       4.781  -0.789  -2.291  0.00  0.00    -0.057 A 
ATOM      8  C   LIG d   1       5.164  -1.918  -2.993  0.00  0.00    -0.037 A 
ATOM      9  C   LIG d   1       4.841  -1.960  -4.349  0.00  0.00     0.050 A 
ATOM     10  N   LIG d   1       5.060  -2.891  -5.314  0.00  0.00    -0.336 N 
ATOM     11  C   LIG d   1       5.740  -4.191  -5.211  0.00  0.00     0.052 C 
ATOM     12  C   LIG d   1       5.566  -4.941  -6.536  0.00  0.00     0.104 C 
ATOM     13  H   LIG d   1       6.190  -5.834  -6.568  0.00  0.00     0.064 H 
ATOM     14  O   LIG d   1       5.858  -4.040  -7.630  0.00  0.00    -0.333 OA
ATOM     15  C   LIG d   1       4.082  -5.291  -6.757  0.00  0.00     0.080 C 
ATOM     16  O   LIG d   1       3.562  -4.263  -7.658  0.00  0.00    -0.337 OA
ATOM     17  H   LIG d   1       3.253   1.076  -4.683  0.00  0.00     0.063 H 
ATOM     18  H   LIG d   1       5.015  -0.725  -1.238  0.00  0.00     0.062 H 
ATOM     19  H   LIG d   1       5.688  -2.731  -2.513  0.00  0.00     0.064 H 
ATOM     20  H   LIG d   1       6.801  -4.035  -5.016  0.00  0.00     0.052 H 
ATOM     21  H   LIG d   1       5.298  -4.772  -4.401  0.00  0.00     0.052 H 
ATOM     22  H   LIG d   1       3.990  -6.275  -7.216  0.00  0.00     0.059 H 
ATOM     23  H   LIG d   1       3.543  -5.265  -5.810  0.00  0.00     0.059 H 
ENDROOT
BRANCH   1  24
ATOM     24  C   LIG d   1       4.559  -2.475  -9.041  0.00  0.00     0.017 A 
ATOM     25  C   LIG d   1       3.412  -2.490  -9.812  0.00  0.00    -0.053 A 
ATOM     26  C   LIG d   1       3.350  -1.743 -10.973  0.00  0.00    -0.058 A 
ATOM     27  H   LIG d   1       2.562  -3.083  -9.505  0.00  0.00     0.062 H 
ATOM     28  C   LIG d   1       4.440  -0.989 -11.369  0.00  0.00    -0.050 A 
ATOM     29  H   LIG d   1       2.453  -1.751 -11.574  0.00  0.00     0.062 H 
ATOM     30  C   LIG d   1       5.586  -0.975 -10.597  0.00  0.00    -0.058 A 
ATOM     31  C   LIG d   1       5.646  -1.717  -9.432  0.00  0.00    -0.053 A 
ATOM     32  H   LIG d   1       6.436  -0.382 -10.903  0.00  0.00     0.062 H 
ATOM     33  H   LIG d   1       6.542  -1.706  -8.830  0.00  0.00     0.062 H 
BRANCH  28  34
ATOM     34  C   LIG d   1       4.375  -0.179 -12.638  0.00  0.00    -0.040 C 
ATOM     35  H   LIG d   1       4.507   0.876 -12.403  0.00  0.00     0.028 H 
ATOM     36  H   LIG d   1       5.164  -0.503 -13.316  0.00  0.00     0.028 H 
ATOM     37  H   LIG d   1       3.404  -0.327 -13.113  0.00  0.00     0.028 H 
ENDBRANCH  28  34
ENDBRANCH   1  24
BRANCH   3  38
ATOM     38  C   LIG d   1       3.298  -0.415  -7.419  0.00  0.00    -0.037 C 
ATOM     39  H   LIG d   1       2.716   0.378  -6.949  0.00  0.00     0.028 H 
ATOM     40  H   LIG d   1       4.051   0.025  -8.072  0.00  0.00     0.028 H 
ATOM     41  H   LIG d   1       2.636  -1.052  -8.005  0.00  0.00     0.028 H 
ENDBRANCH   3  38
BRANCH   6  42
ATOM     42  C   LIG d   1       3.728   1.457  -2.054  0.00  0.00    -0.040 C 
ATOM     43  H   LIG d   1       3.105   2.130  -2.643  0.00  0.00     0.028 H 
ATOM     44  H   LIG d   1       3.175   1.125  -1.176  0.00  0.00     0.028 H 
ATOM     45  H   LIG d   1       4.630   1.982  -1.738  0.00  0.00     0.028 H 
ENDBRANCH   6  42
TORSDOF 4
ENDMDL
MODEL 5
REMARK VINA RESULT:      -5.7      3.243      7.115
REMARK  4 active torsions:
REMARK  status: ('A' for Active; 'I' for Inactive)
REMARK    1  A    between atoms: C_1  and  C_2 
REMARK    2  A    between atoms: C_5  and  C_8 
REMARK    3  A    between atoms: C_10  and  C_25 
REMARK    4  A    between atoms: C_13  and  C_24 
ROOT
ATOM      1  C   LIG d   1       4.738  -0.106  -9.546  0.00  0.00     0.240 C 
ATOM      2  C   LIG d   1       4.425  -0.372  -8.083  0.00  0.00     0.087 A 
ATOM      3  C   LIG d   1       4.946  -1.298  -7.277  0.00  0.00    -0.016 A 
ATOM      4  C   LIG d   1       4.311  -1.125  -5.979  0.00  0.00     0.004 A 
ATOM      5  C   LIG d   1       4.458  -1.799  -4.763  0.00  0.00    -0.049 A 
ATOM      6  C   LIG d   1       3.684  -1.365  -3.716  0.00  0.00    -0.050 A 
ATOM      7  C   LIG d   1       2.796  -0.309  -3.847  0.00  0.00    -0.057 A 
ATOM      8  C   LIG d   1       2.630   0.375  -5.038  0.00  0.00    -0.037 A 
ATOM      9  C   LIG d   1       3.403  -0.043  -6.121  0.00  0.00     0.050 A 
ATOM     10  N   LIG d   1       3.491   0.391  -7.405  0.00  0.00    -0.336 N 
ATOM     11  C   LIG d   1       2.757   1.480  -8.067  0.00  0.00     0.052 C 
ATOM     12  C   LIG d   1       3.348   1.688  -9.467  0.00  0.00     0.104 C 
ATOM     13  H   LIG d   1       2.733   2.367 -10.057  0.00  0.00     0.064 H 
ATOM     14  O   LIG d   1       3.498   0.400 -10.111  0.00  0.00    -0.333 OA
ATOM     15  C   LIG d   1       4.797   2.198  -9.361  0.00  0.00     0.080 C 
ATOM     16  O   LIG d   1       5.647   1.022  -9.544  0.00  0.00    -0.337 OA
ATOM     17  H   LIG d   1       5.148  -2.623  -4.653  0.00  0.00     0.063 H 
ATOM     18  H   LIG d   1       2.213  -0.010  -2.988  0.00  0.00     0.062 H 
ATOM     19  H   LIG d   1       1.933   1.195  -5.126  0.00  0.00     0.064 H 
ATOM     20  H   LIG d   1       1.704   1.215  -8.151  0.00  0.00     0.052 H 
ATOM     21  H   LIG d   1       2.862   2.397  -7.488  0.00  0.00     0.052 H 
ATOM     22  H   LIG d   1       4.998   2.931 -10.142  0.00  0.00     0.059 H 
ATOM     23  H   LIG d   1       4.972   2.636  -8.379  0.00  0.00     0.059 H 
ENDROOT
BRANCH   1  24
ATOM     24  C   LIG d   1       5.280  -1.311 -10.271  0.00  0.00     0.017 A 
ATOM     25  C   LIG d   1       6.615  -1.363 -10.623  0.00  0.00    -0.053 A 
ATOM     26  C   LIG d   1       7.113  -2.470 -11.284  0.00  0.00    -0.058 A 
ATOM     27  H   LIG d   1       7.271  -0.540 -10.378  0.00  0.00     0.062 H 
ATOM     28  C   LIG d   1       6.273  -3.520 -11.603  0.00  0.00    -0.050 A 
ATOM     29  H   LIG d   1       8.158  -2.512 -11.555  0.00  0.00     0.062 H 
ATOM     30  C   LIG d   1       4.937  -3.467 -11.251  0.00  0.00    -0.058 A 
ATOM     31  C   LIG d   1       4.440  -2.363 -10.585  0.00  0.00    -0.053 A 
ATOM     32  H   LIG d   1       4.281  -4.290 -11.496  0.00  0.00     0.062 H 
ATOM     33  H   LIG d   1       3.397  -2.321 -10.311  0.00  0.00     0.062 H 
BRANCH  28  34
ATOM     34  C   LIG d   1       6.814  -4.725 -12.329  0.00  0.00    -0.040 C 
ATOM     35  H   LIG d   1       7.854  -4.882 -12.046  0.00  0.00     0.028 H 
ATOM     36  H   LIG d   1       6.228  -5.603 -12.063  0.00  0.00     0.028 H 
ATOM     37  H   LIG d   1       6.752  -4.558 -13.405  0.00  0.00     0.028 H 
ENDBRANCH  28  34
ENDBRANCH   1  24
BRANCH   3  38
ATOM     38  C   LIG d   1       5.990  -2.322  -7.639  0.00  0.00    -0.037 C 
ATOM     39  H   LIG d   1       6.970  -1.975  -7.310  0.00  0.00     0.028 H 
ATOM     40  H   LIG d   1       5.757  -3.267  -7.149  0.00  0.00     0.028 H 
ATOM     41  H   LIG d   1       6.000  -2.465  -8.719  0.00  0.00     0.028 H 
ENDBRANCH   3  38
BRANCH   6  42
ATOM     42  C   LIG d   1       3.804  -2.056  -2.383  0.00  0.00    -0.040 C 
ATOM     43  H   LIG d   1       3.392  -3.062  -2.457  0.00  0.00     0.028 H 
ATOM     44  H   LIG d   1       4.854  -2.113  -2.096  0.00  0.00     0.028 H 
ATOM     45  H   LIG d   1       3.253  -1.493  -1.630  0.00  0.00     0.028 H 
ENDBRANCH   6  42
TORSDOF 4
ENDMDL
MODEL 6
REMARK VINA RESULT:      -5.7      2.318      3.928
REMARK  4 active torsions:
REMARK  status: ('A' for Active; 'I' for Inactive)
REMARK    1  A    between atoms: C_1  and  C_2 
REMARK    2  A    between atoms: C_5  and  C_8 
REMARK    3  A    between atoms: C_10  and  C_25 
REMARK    4  A    between atoms: C_13  and  C_24 
ROOT
ATOM      1  C   LIG d   1       4.922  -1.103  -4.763  0.00  0.00     0.240 C 
ATOM      2  C   LIG d   1       4.340  -1.133  -6.167  0.00  0.00     0.087 A 
ATOM      3  C   LIG d   1       4.690  -1.908  -7.195  0.00  0.00    -0.016 A 
ATOM      4  C   LIG d   1       3.822  -1.543  -8.305  0.00  0.00     0.004 A 
ATOM      5  C   LIG d   1       3.728  -2.013  -9.617  0.00  0.00    -0.049 A 
ATOM      6  C   LIG d   1       2.774  -1.434 -10.417  0.00  0.00    -0.050 A 
ATOM      7  C   LIG d   1       1.938  -0.431  -9.953  0.00  0.00    -0.057 A 
ATOM      8  C   LIG d   1       2.010   0.054  -8.659  0.00  0.00    -0.037 A 
ATOM      9  C   LIG d   1       2.970  -0.515  -7.823  0.00  0.00     0.050 A 
ATOM     10  N   LIG d   1       3.307  -0.286  -6.527  0.00  0.00    -0.336 N 
ATOM     11  C   LIG d   1       2.737   0.682  -5.578  0.00  0.00     0.052 C 
ATOM     12  C   LIG d   1       3.341   0.424  -4.193  0.00  0.00     0.104 C 
ATOM     13  H   LIG d   1       3.078   1.218  -3.495  0.00  0.00     0.064 H 
ATOM     14  O   LIG d   1       4.775   0.275  -4.324  0.00  0.00    -0.333 OA
ATOM     15  C   LIG d   1       2.892  -0.953  -3.667  0.00  0.00     0.080 C 
ATOM     16  O   LIG d   1       3.999  -1.866  -3.949  0.00  0.00    -0.337 OA
ATOM     17  H   LIG d   1       4.376  -2.795  -9.987  0.00  0.00     0.063 H 
ATOM     18  H   LIG d   1       1.205  -0.011 -10.627  0.00  0.00     0.062 H 
ATOM     19  H   LIG d   1       1.353   0.837  -8.312  0.00  0.00     0.064 H 
ATOM     20  H   LIG d   1       2.979   1.695  -5.899  0.00  0.00     0.052 H 
ATOM     21  H   LIG d   1       1.655   0.558  -5.534  0.00  0.00     0.052 H 
ATOM     22  H   LIG d   1       2.708  -0.905  -2.594  0.00  0.00     0.059 H 
ATOM     23  H   LIG d   1       1.994  -1.282  -4.189  0.00  0.00     0.059 H 
ENDROOT
BRANCH   1  24
ATOM     24  C   LIG d   1       6.341  -1.606  -4.692  0.00  0.00     0.017 A 
ATOM     25  C   LIG d   1       6.606  -2.849  -4.150  0.00  0.00    -0.053 A 
ATOM     26  C   LIG d   1       7.907  -3.314  -4.089  0.00  0.00    -0.058 A 
ATOM     27  H   LIG d   1       5.797  -3.461  -3.776  0.00  0.00     0.062 H 
ATOM     28  C   LIG d   1       8.943  -2.529  -4.561  0.00  0.00    -0.050 A 
ATOM     29  H   LIG d   1       8.114  -4.286  -3.669  0.00  0.00     0.062 H 
ATOM     30  C   LIG d   1       8.677  -1.286  -5.103  0.00  0.00    -0.058 A 
ATOM     31  C   LIG d   1       7.376  -0.824  -5.169  0.00  0.00    -0.053 A 
ATOM     32  H   LIG d   1       9.486  -0.675  -5.476  0.00  0.00     0.062 H 
ATOM     33  H   LIG d   1       7.168   0.147  -5.592  0.00  0.00     0.062 H 
BRANCH  28  34
ATOM     34  C   LIG d   1      10.362  -3.033  -4.489  0.00  0.00    -0.040 C 
ATOM     35  H   LIG d   1      10.593  -3.322  -3.464  0.00  0.00     0.028 H 
ATOM     36  H   LIG d   1      10.475  -3.895  -5.145  0.00  0.00     0.028 H 
ATOM     37  H   LIG d   1      11.043  -2.243  -4.806  0.00  0.00     0.028 H 
ENDBRANCH  28  34
ENDBRANCH   1  24
BRANCH   3  38
ATOM     38  C   LIG d   1       5.772  -2.957  -7.205  0.00  0.00    -0.037 C 
ATOM     39  H   LIG d   1       6.111  -3.120  -8.228  0.00  0.00     0.028 H 
ATOM     40  H   LIG d   1       6.609  -2.620  -6.594  0.00  0.00     0.028 H 
ATOM     41  H   LIG d   1       5.378  -3.889  -6.801  0.00  0.00     0.028 H 
ENDBRANCH   3  38
BRANCH   6  42
ATOM     42  C   LIG d   1       2.630  -1.904 -11.841  0.00  0.00    -0.040 C 
ATOM     43  H   LIG d   1       2.069  -1.165 -12.412  0.00  0.00     0.028 H 
ATOM     44  H   LIG d   1       3.618  -2.032 -12.283  0.00  0.00     0.028 H 
ATOM     45  H   LIG d   1       2.098  -2.855 -11.858  0.00  0.00     0.028 H 
ENDBRANCH   6  42
TORSDOF 4
ENDMDL
MODEL 7
REMARK VINA RESULT:      -5.5      7.464      9.351
REMARK  4 active torsions:
REMARK  status: ('A' for Active; 'I' for Inactive)
REMARK    1  A    between atoms: C_1  and  C_2 
REMARK    2  A    between atoms: C_5  and  C_8 
REMARK    3  A    between atoms: C_10  and  C_25 
REMARK    4  A    between atoms: C_13  and  C_24 
ROOT
ATOM      1  C   LIG d   1      10.706  -7.909  -1.772  0.00  0.00     0.240 C 
ATOM      2  C   LIG d   1       9.390  -8.649  -1.937  0.00  0.00     0.087 A 
ATOM      3  C   LIG d   1       8.469  -8.505  -2.891  0.00  0.00    -0.016 A 
ATOM      4  C   LIG d   1       7.405  -9.452  -2.589  0.00  0.00     0.004 A 
ATOM      5  C   LIG d   1       6.200  -9.747  -3.232  0.00  0.00    -0.049 A 
ATOM      6  C   LIG d   1       5.416 -10.720  -2.663  0.00  0.00    -0.050 A 
ATOM      7  C   LIG d   1       5.793 -11.384  -1.508  0.00  0.00    -0.057 A 
ATOM      8  C   LIG d   1       6.980 -11.112  -0.851  0.00  0.00    -0.037 A 
ATOM      9  C   LIG d   1       7.798 -10.128  -1.405  0.00  0.00     0.050 A 
ATOM     10  N   LIG d   1       9.001  -9.620  -1.031  0.00  0.00    -0.336 N 
ATOM     11  C   LIG d   1       9.835  -9.970   0.129  0.00  0.00     0.052 C 
ATOM     12  C   LIG d   1      11.178  -9.241   0.004  0.00  0.00     0.104 C 
ATOM     13  H   LIG d   1      11.764  -9.336   0.918  0.00  0.00     0.064 H 
ATOM     14  O   LIG d   1      10.933  -7.857  -0.338  0.00  0.00    -0.333 OA
ATOM     15  C   LIG d   1      11.958  -9.770  -1.214  0.00  0.00     0.080 C 
ATOM     16  O   LIG d   1      11.718  -8.807  -2.288  0.00  0.00    -0.337 OA
ATOM     17  H   LIG d   1       5.898  -9.233  -4.133  0.00  0.00     0.063 H 
ATOM     18  H   LIG d   1       5.136 -12.142  -1.104  0.00  0.00     0.062 H 
ATOM     19  H   LIG d   1       7.261 -11.638   0.050  0.00  0.00     0.064 H 
ATOM     20  H   LIG d   1       9.335  -9.661   1.046  0.00  0.00     0.052 H 
ATOM     21  H   LIG d   1      10.005 -11.047   0.147  0.00  0.00     0.052 H 
ATOM     22  H   LIG d   1      13.023  -9.823  -0.987  0.00  0.00     0.059 H 
ATOM     23  H   LIG d   1      11.585 -10.753  -1.503  0.00  0.00     0.059 H 
ENDROOT
BRANCH   1  24
ATOM     24  C   LIG d   1      10.717  -6.553  -2.431  0.00  0.00     0.017 A 
ATOM     25  C   LIG d   1      11.526  -6.324  -3.527  0.00  0.00    -0.053 A 
ATOM     26  C   LIG d   1      11.533  -5.083  -4.135  0.00  0.00    -0.058 A 
ATOM     27  H   LIG d   1      12.151  -7.117  -3.913  0.00  0.00     0.062 H 
ATOM     28  C   LIG d   1      10.738  -4.066  -3.637  0.00  0.00    -0.050 A 
ATOM     29  H   LIG d   1      12.162  -4.904  -4.994  0.00  0.00     0.062 H 
ATOM     30  C   LIG d   1       9.929  -4.296  -2.540  0.00  0.00    -0.058 A 
ATOM     31  C   LIG d   1       9.918  -5.539  -1.937  0.00  0.00    -0.053 A 
ATOM     32  H   LIG d   1       9.304  -3.503  -2.155  0.00  0.00     0.062 H 
ATOM     33  H   LIG d   1       9.287  -5.718  -1.079  0.00  0.00     0.062 H 
BRANCH  28  34
ATOM     34  C   LIG d   1      10.750  -2.710  -4.296  0.00  0.00    -0.040 C 
ATOM     35  H   LIG d   1      10.872  -2.830  -5.371  0.00  0.00     0.028 H 
ATOM     36  H   LIG d   1       9.810  -2.199  -4.091  0.00  0.00     0.028 H 
ATOM     37  H   LIG d   1      11.577  -2.122  -3.898  0.00  0.00     0.028 H 
ENDBRANCH  28  34
ENDBRANCH   1  24
BRANCH   3  38
ATOM     38  C   LIG d   1       8.520  -7.550  -4.055  0.00  0.00    -0.037 C 
ATOM     39  H   LIG d   1       8.893  -6.583  -3.716  0.00  0.00     0.028 H 
ATOM     40  H   LIG d   1       9.184  -7.946  -4.822  0.00  0.00     0.028 H 
ATOM     41  H   LIG d   1       7.519  -7.427  -4.468  0.00  0.00     0.028 H 
ENDBRANCH   3  38
BRANCH   6  42
ATOM     42  C   LIG d   1       4.106 -11.077  -3.316  0.00  0.00    -0.040 C 
ATOM     43  H   LIG d   1       3.921 -12.145  -3.200  0.00  0.00     0.028 H 
ATOM     44  H   LIG d   1       3.299 -10.516  -2.844  0.00  0.00     0.028 H 
ATOM     45  H   LIG d   1       4.148 -10.830  -4.376  0.00  0.00     0.028 H 
ENDBRANCH   6  42
TORSDOF 4
ENDMDL
MODEL 8
REMARK VINA RESULT:      -5.5      3.371      6.633
REMARK  4 active torsions:
REMARK  status: ('A' for Active; 'I' for Inactive)
REMARK    1  A    between atoms: C_1  and  C_2 
REMARK    2  A    between atoms: C_5  and  C_8 
REMARK    3  A    between atoms: C_10  and  C_25 
REMARK    4  A    between atoms: C_13  and  C_24 
ROOT
ATOM      1  C   LIG d   1       4.002  -0.762  -7.441  0.00  0.00     0.240 C 
ATOM      2  C   LIG d   1       5.246   0.090  -7.627  0.00  0.00     0.087 A 
ATOM      3  C   LIG d   1       5.512   0.974  -8.591  0.00  0.00    -0.016 A 
ATOM      4  C   LIG d   1       6.832   1.517  -8.305  0.00  0.00     0.004 A 
ATOM      5  C   LIG d   1       7.618   2.468  -8.961  0.00  0.00    -0.049 A 
ATOM      6  C   LIG d   1       8.842   2.751  -8.405  0.00  0.00    -0.050 A 
ATOM      7  C   LIG d   1       9.285   2.128  -7.249  0.00  0.00    -0.057 A 
ATOM      8  C   LIG d   1       8.528   1.182  -6.581  0.00  0.00    -0.037 A 
ATOM      9  C   LIG d   1       7.280   0.874  -7.121  0.00  0.00     0.050 A 
ATOM     10  N   LIG d   1       6.301   0.014  -6.735  0.00  0.00    -0.336 N 
ATOM     11  C   LIG d   1       6.269  -0.895  -5.579  0.00  0.00     0.052 C 
ATOM     12  C   LIG d   1       4.872  -1.518  -5.485  0.00  0.00     0.104 C 
ATOM     13  H   LIG d   1       4.848  -2.321  -4.748  0.00  0.00     0.064 H 
ATOM     14  O   LIG d   1       4.471  -1.977  -6.797  0.00  0.00    -0.333 OA
ATOM     15  C   LIG d   1       3.828  -0.433  -5.159  0.00  0.00     0.080 C 
ATOM     16  O   LIG d   1       3.215  -0.076  -6.438  0.00  0.00    -0.337 OA
ATOM     17  H   LIG d   1       7.281   2.958  -9.862  0.00  0.00     0.063 H 
ATOM     18  H   LIG d   1      10.257   2.390  -6.857  0.00  0.00     0.062 H 
ATOM     19  H   LIG d   1       8.886   0.704  -5.681  0.00  0.00     0.064 H 
ATOM     20  H   LIG d   1       7.012  -1.681  -5.711  0.00  0.00     0.052 H 
ATOM     21  H   LIG d   1       6.482  -0.336  -4.668  0.00  0.00     0.052 H 
ATOM     22  H   LIG d   1       3.074  -0.826  -4.478  0.00  0.00     0.059 H 
ATOM     23  H   LIG d   1       4.314   0.439  -4.721  0.00  0.00     0.059 H 
ENDROOT
BRANCH   1  24
ATOM     24  C   LIG d   1       3.251  -1.014  -8.723  0.00  0.00     0.017 A 
ATOM     25  C   LIG d   1       3.767  -1.880  -9.668  0.00  0.00    -0.053 A 
ATOM     26  C   LIG d   1       3.076  -2.115 -10.842  0.00  0.00    -0.058 A 
ATOM     27  H   LIG d   1       4.710  -2.378  -9.487  0.00  0.00     0.062 H 
ATOM     28  C   LIG d   1       1.874  -1.474 -11.075  0.00  0.00    -0.050 A 
ATOM     29  H   LIG d   1       3.478  -2.795 -11.578  0.00  0.00     0.062 H 
ATOM     30  C   LIG d   1       1.358  -0.607 -10.130  0.00  0.00    -0.058 A 
ATOM     31  C   LIG d   1       2.046  -0.377  -8.954  0.00  0.00    -0.053 A 
ATOM     32  H   LIG d   1       0.416  -0.109 -10.310  0.00  0.00     0.062 H 
ATOM     33  H   LIG d   1       1.643   0.301  -8.216  0.00  0.00     0.062 H 
BRANCH  28  34
ATOM     34  C   LIG d   1       1.123  -1.724 -12.358  0.00  0.00    -0.040 C 
ATOM     35  H   LIG d   1       0.659  -2.709 -12.321  0.00  0.00     0.028 H 
ATOM     36  H   LIG d   1       0.353  -0.963 -12.483  0.00  0.00     0.028 H 
ATOM     37  H   LIG d   1       1.817  -1.681 -13.198  0.00  0.00     0.028 H 
ENDBRANCH  28  34
ENDBRANCH   1  24
BRANCH   3  38
ATOM     38  C   LIG d   1       4.619   1.340  -9.748  0.00  0.00    -0.037 C 
ATOM     39  H   LIG d   1       5.212   1.819 -10.527  0.00  0.00     0.028 H 
ATOM     40  H   LIG d   1       4.155   0.439 -10.147  0.00  0.00     0.028 H 
ATOM     41  H   LIG d   1       3.846   2.028  -9.407  0.00  0.00     0.028 H 
ENDBRANCH   3  38
BRANCH   6  42
ATOM     42  C   LIG d   1       9.729   3.769  -9.071  0.00  0.00    -0.040 C 
ATOM     43  H   LIG d   1      10.604   3.952  -8.448  0.00  0.00     0.028 H 
ATOM     44  H   LIG d   1      10.047   3.394 -10.044  0.00  0.00     0.028 H 
ATOM     45  H   LIG d   1       9.178   4.700  -9.204  0.00  0.00     0.028 H 
ENDBRANCH   6  42
TORSDOF 4
ENDMDL
MODEL 9
REMARK VINA RESULT:      -5.5      4.559      6.810
REMARK  4 active torsions:
REMARK  status: ('A' for Active; 'I' for Inactive)
REMARK    1  A    between atoms: C_1  and  C_2 
REMARK    2  A    between atoms: C_5  and  C_8 
REMARK    3  A    between atoms: C_10  and  C_25 
REMARK    4  A    between atoms: C_13  and  C_24 
ROOT
ATOM      1  C   LIG d   1       9.419   1.272  -5.586  0.00  0.00     0.240 C 
ATOM      2  C   LIG d   1       8.312   0.384  -5.043  0.00  0.00     0.087 A 
ATOM      3  C   LIG d   1       7.334   0.701  -4.193  0.00  0.00    -0.016 A 
ATOM      4  C   LIG d   1       6.543  -0.506  -4.002  0.00  0.00     0.004 A 
ATOM      5  C   LIG d   1       5.407  -0.772  -3.232  0.00  0.00    -0.049 A 
ATOM      6  C   LIG d   1       4.906  -2.049  -3.286  0.00  0.00    -0.050 A 
ATOM      7  C   LIG d   1       5.491  -3.034  -4.064  0.00  0.00    -0.057 A 
ATOM      8  C   LIG d   1       6.616  -2.799  -4.835  0.00  0.00    -0.037 A 
ATOM      9  C   LIG d   1       7.148  -1.511  -4.801  0.00  0.00     0.050 A 
ATOM     10  N   LIG d   1       8.218  -0.945  -5.418  0.00  0.00    -0.336 N 
ATOM     11  C   LIG d   1       9.183  -1.555  -6.345  0.00  0.00     0.052 C 
ATOM     12  C   LIG d   1      10.093  -0.453  -6.899  0.00  0.00     0.104 C 
ATOM     13  H   LIG d   1      10.927  -0.876  -7.459  0.00  0.00     0.064 H 
ATOM     14  O   LIG d   1      10.545   0.380  -5.805  0.00  0.00    -0.333 OA
ATOM     15  C   LIG d   1       9.276   0.522  -7.768  0.00  0.00     0.080 C 
ATOM     16  O   LIG d   1       8.979   1.667  -6.908  0.00  0.00    -0.337 OA
ATOM     17  H   LIG d   1       4.945  -0.009  -2.622  0.00  0.00     0.063 H 
ATOM     18  H   LIG d   1       5.054  -4.023  -4.068  0.00  0.00     0.062 H 
ATOM     19  H   LIG d   1       7.062  -3.577  -5.437  0.00  0.00     0.064 H 
ATOM     20  H   LIG d   1       9.784  -2.293  -5.814  0.00  0.00     0.052 H 
ATOM     21  H   LIG d   1       8.649  -2.035  -7.165  0.00  0.00     0.052 H 
ATOM     22  H   LIG d   1       9.862   0.841  -8.630  0.00  0.00     0.059 H 
ATOM     23  H   LIG d   1       8.350   0.050  -8.097  0.00  0.00     0.059 H 
ENDROOT
BRANCH   1  24
ATOM     24  C   LIG d   1       9.744   2.440  -4.690  0.00  0.00     0.017 A 
ATOM     25  C   LIG d   1      10.421   2.232  -3.503  0.00  0.00    -0.053 A 
ATOM     26  C   LIG d   1      10.723   3.303  -2.683  0.00  0.00    -0.058 A 
ATOM     27  H   LIG d   1      10.717   1.233  -3.217  0.00  0.00     0.062 H 
ATOM     28  C   LIG d   1      10.339   4.580  -3.046  0.00  0.00    -0.050 A 
ATOM     29  H   LIG d   1      11.255   3.141  -1.757  0.00  0.00     0.062 H 
ATOM     30  C   LIG d   1       9.663   4.787  -4.233  0.00  0.00    -0.058 A 
ATOM     31  C   LIG d   1       9.365   3.717  -5.056  0.00  0.00    -0.053 A 
ATOM     32  H   LIG d   1       9.367   5.787  -4.520  0.00  0.00     0.062 H 
ATOM     33  H   LIG d   1       8.836   3.879  -5.983  0.00  0.00     0.062 H 
BRANCH  28  34
ATOM     34  C   LIG d   1      10.664   5.748  -2.149  0.00  0.00    -0.040 C 
ATOM     35  H   LIG d   1      11.304   5.413  -1.334  0.00  0.00     0.028 H 
ATOM     36  H   LIG d   1      11.179   6.516  -2.725  0.00  0.00     0.028 H 
ATOM     37  H   LIG d   1       9.740   6.158  -1.740  0.00  0.00     0.028 H 
ENDBRANCH  28  34
ENDBRANCH   1  24
BRANCH   3  38
ATOM     38  C   LIG d   1       7.095   2.045  -3.556  0.00  0.00    -0.037 C 
ATOM     39  H   LIG d   1       7.005   1.925  -2.476  0.00  0.00     0.028 H 
ATOM     40  H   LIG d   1       7.931   2.707  -3.779  0.00  0.00     0.028 H 
ATOM     41  H   LIG d   1       6.175   2.475  -3.950  0.00  0.00     0.028 H 
ENDBRANCH   3  38
BRANCH   6  42
ATOM     42  C   LIG d   1       3.683  -2.389  -2.475  0.00  0.00    -0.040 C 
ATOM     43  H   LIG d   1       2.864  -1.728  -2.757  0.00  0.00     0.028 H 
ATOM     44  H   LIG d   1       3.397  -3.424  -2.665  0.00  0.00     0.028 H 
ATOM     45  H   LIG d   1       3.903  -2.262  -1.415  0.00  0.00     0.028 H 
ENDBRANCH   6  42
TORSDOF 4
ENDMDL
