MODEL 1
REMARK VINA RESULT:      -5.4      0.000      0.000
REMARK  10 active torsions:
REMARK  status: ('A' for Active; 'I' for Inactive)
REMARK    1  A    between atoms: C_1  and  C_2 
REMARK    2  A    between atoms: C_4  and  C_10 
REMARK    3  A    between atoms: C_7  and  O_8 
REMARK    4  A    between atoms: O_8  and  C_9 
REMARK    5  A    between atoms: C_18  and  O_25 
REMARK    6  A    between atoms: C_19  and  O_23 
REMARK    7  A    between atoms: C_20  and  O_21 
REMARK    8  A    between atoms: O_21  and  C_22 
REMARK    9  A    between atoms: O_23  and  C_24 
REMARK   10  A    between atoms: O_25  and  C_26 
ROOT
ATOM      1  C   LIG d   1       8.295   2.143  -4.146  0.00  0.00     0.139 A 
ATOM      2  C   LIG d   1       8.524   2.386  -5.464  0.00  0.00     0.029 A 
ATOM      3  C   LIG d   1       9.412   3.423  -5.837  0.00  0.00     0.197 A 
ATOM      4  O   LIG d   1       9.641   3.669  -7.011  0.00  0.00    -0.287 OA
ATOM      5  C   LIG d   1      10.046   4.196  -4.756  0.00  0.00     0.109 A 
ATOM      6  C   LIG d   1       9.740   3.862  -3.425  0.00  0.00     0.146 A 
ATOM      7  O   LIG d   1       8.879   2.852  -3.168  0.00  0.00    -0.454 OA
ATOM      8  C   LIG d   1      10.325   4.574  -2.390  0.00  0.00     0.027 A 
ATOM      9  C   LIG d   1      11.209   5.605  -2.670  0.00  0.00     0.169 A 
ATOM     10  C   LIG d   1      11.511   5.942  -3.987  0.00  0.00     0.204 A 
ATOM     11  C   LIG d   1      10.935   5.239  -5.034  0.00  0.00     0.179 A 
ATOM     12  H   LIG d   1       8.034   1.792  -6.220  0.00  0.00     0.069 H 
ATOM     13  H   LIG d   1      10.094   4.324  -1.365  0.00  0.00     0.069 H 
ENDROOT
BRANCH   1  14
ATOM     14  C   LIG d   1       7.368   1.056  -3.776  0.00  0.00     0.018 A 
ATOM     15  C   LIG d   1       6.178   1.348  -3.103  0.00  0.00    -0.045 A 
ATOM     16  C   LIG d   1       5.316   0.330  -2.761  0.00  0.00    -0.008 A 
ATOM     17  H   LIG d   1       5.936   2.369  -2.851  0.00  0.00     0.063 H 
ATOM     18  C   LIG d   1       5.627  -0.985  -3.083  0.00  0.00     0.123 A 
ATOM     19  C   LIG d   1       6.808  -1.280  -3.753  0.00  0.00    -0.019 A 
ATOM     20  C   LIG d   1       7.674  -0.269  -4.104  0.00  0.00    -0.048 A 
ATOM     21  H   LIG d   1       7.046  -2.304  -4.001  0.00  0.00     0.065 H 
ATOM     22  H   LIG d   1       8.590  -0.498  -4.628  0.00  0.00     0.063 H 
BRANCH  16  23
ATOM     23  C   LIG d   1       4.033   0.644  -2.034  0.00  0.00    -0.036 C 
ATOM     24  H   LIG d   1       4.246   1.301  -1.191  0.00  0.00     0.028 H 
ATOM     25  H   LIG d   1       3.341   1.140  -2.716  0.00  0.00     0.028 H 
ATOM     26  H   LIG d   1       3.586  -0.280  -1.671  0.00  0.00     0.028 H 
ENDBRANCH  16  23
BRANCH  18  27
ATOM     27  O   LIG d   1       4.774  -1.985  -2.744  0.00  0.00    -0.495 OA
BRANCH  27  28
ATOM     28  C   LIG d   1       4.423  -2.916  -3.770  0.00  0.00     0.079 C 
ATOM     29  H   LIG d   1       5.189  -3.689  -3.836  0.00  0.00     0.066 H 
ATOM     30  H   LIG d   1       3.463  -3.375  -3.532  0.00  0.00     0.066 H 
ATOM     31  H   LIG d   1       4.350  -2.395  -4.724  0.00  0.00     0.066 H 
ENDBRANCH  27  28
ENDBRANCH  18  27
ENDBRANCH   1  14
BRANCH  11  32
ATOM     32  O   LIG d   1      11.231   5.563  -6.320  0.00  0.00    -0.490 OA
BRANCH  32  33
ATOM     33  C   LIG d   1      10.650   6.763  -6.836  0.00  0.00     0.079 C 
ATOM     34  H   LIG d   1      11.192   7.074  -7.728  0.00  0.00     0.066 H 
ATOM     35  H   LIG d   1       9.606   6.580  -7.090  0.00  0.00     0.066 H 
ATOM     36  H   LIG d   1      10.708   7.547  -6.083  0.00  0.00     0.066 H 
ENDBRANCH  32  33
ENDBRANCH  11  32
BRANCH   9  37
ATOM     37  O   LIG d   1      11.782   6.295  -1.649  0.00  0.00    -0.491 OA
BRANCH  37  38
ATOM     38  C   LIG d   1      12.255   5.534  -0.537  0.00  0.00     0.079 C 
ATOM     39  H   LIG d   1      13.032   6.095  -0.017  0.00  0.00     0.066 H 
ATOM     40  H   LIG d   1      11.429   5.337   0.147  0.00  0.00     0.066 H 
ATOM     41  H   LIG d   1      12.667   4.589  -0.892  0.00  0.00     0.066 H 
ENDBRANCH  37  38
ENDBRANCH   9  37
BRANCH  10  42
ATOM     42  O   LIG d   1      12.378   6.960  -4.247  0.00  0.00    -0.488 OA
BRANCH  42  43
ATOM     43  C   LIG d   1      13.763   6.621  -4.349  0.00  0.00     0.079 C 
ATOM     44  H   LIG d   1      14.007   6.400  -5.388  0.00  0.00     0.066 H 
ATOM     45  H   LIG d   1      13.969   5.745  -3.733  0.00  0.00     0.066 H 
ATOM     46  H   LIG d   1      14.368   7.459  -4.003  0.00  0.00     0.066 H 
ENDBRANCH  42  43
ENDBRANCH  10  42
TORSDOF 10
ENDMDL
MODEL 2
REMARK VINA RESULT:      -5.2      1.818      8.140
REMARK  10 active torsions:
REMARK  status: ('A' for Active; 'I' for Inactive)
REMARK    1  A    between atoms: C_1  and  C_2 
REMARK    2  A    between atoms: C_4  and  C_10 
REMARK    3  A    between atoms: C_7  and  O_8 
REMARK    4  A    between atoms: O_8  and  C_9 
REMARK    5  A    between atoms: C_18  and  O_25 
REMARK    6  A    between atoms: C_19  and  O_23 
REMARK    7  A    between atoms: C_20  and  O_21 
REMARK    8  A    between atoms: O_21  and  C_22 
REMARK    9  A    between atoms: O_23  and  C_24 
REMARK   10  A    between atoms: O_25  and  C_26 
ROOT
ATOM      1  C   LIG d   1       8.783   2.453  -4.038  0.00  0.00     0.139 A 
ATOM      2  C   LIG d   1       9.486   1.553  -4.776  0.00  0.00     0.029 A 
ATOM      3  C   LIG d   1       8.980   0.243  -4.944  0.00  0.00     0.197 A 
ATOM      4  O   LIG d   1       9.584  -0.590  -5.600  0.00  0.00    -0.287 OA
ATOM      5  C   LIG d   1       7.696  -0.077  -4.297  0.00  0.00     0.109 A 
ATOM      6  C   LIG d   1       7.050   0.928  -3.556  0.00  0.00     0.146 A 
ATOM      7  O   LIG d   1       7.614   2.152  -3.453  0.00  0.00    -0.454 OA
ATOM      8  C   LIG d   1       5.841   0.651  -2.939  0.00  0.00     0.027 A 
ATOM      9  C   LIG d   1       5.274  -0.609  -3.057  0.00  0.00     0.169 A 
ATOM     10  C   LIG d   1       5.913  -1.609  -3.785  0.00  0.00     0.204 A 
ATOM     11  C   LIG d   1       7.123  -1.348  -4.411  0.00  0.00     0.179 A 
ATOM     12  H   LIG d   1      10.424   1.836  -5.229  0.00  0.00     0.069 H 
ATOM     13  H   LIG d   1       5.339   1.417  -2.367  0.00  0.00     0.069 H 
ENDROOT
BRANCH   1  14
ATOM     14  C   LIG d   1       9.327   3.815  -3.875  0.00  0.00     0.018 A 
ATOM     15  C   LIG d   1       9.197   4.751  -4.905  0.00  0.00    -0.045 A 
ATOM     16  C   LIG d   1       9.705   6.021  -4.747  0.00  0.00    -0.008 A 
ATOM     17  H   LIG d   1       8.700   4.478  -5.824  0.00  0.00     0.063 H 
ATOM     18  C   LIG d   1      10.346   6.373  -3.566  0.00  0.00     0.123 A 
ATOM     19  C   LIG d   1      10.477   5.447  -2.539  0.00  0.00    -0.019 A 
ATOM     20  C   LIG d   1       9.968   4.176  -2.685  0.00  0.00    -0.048 A 
ATOM     21  H   LIG d   1      10.977   5.725  -1.622  0.00  0.00     0.065 H 
ATOM     22  H   LIG d   1      10.066   3.458  -1.885  0.00  0.00     0.063 H 
BRANCH  16  23
ATOM     23  C   LIG d   1       9.566   7.030  -5.858  0.00  0.00    -0.036 C 
ATOM     24  H   LIG d   1       9.323   6.514  -6.788  0.00  0.00     0.028 H 
ATOM     25  H   LIG d   1       8.769   7.733  -5.614  0.00  0.00     0.028 H 
ATOM     26  H   LIG d   1      10.504   7.571  -5.977  0.00  0.00     0.028 H 
ENDBRANCH  16  23
BRANCH  18  27
ATOM     27  O   LIG d   1      10.846   7.626  -3.415  0.00  0.00    -0.495 OA
BRANCH  27  28
ATOM     28  C   LIG d   1      10.374   8.383  -2.299  0.00  0.00     0.079 C 
ATOM     29  H   LIG d   1       9.478   7.913  -1.893  0.00  0.00     0.066 H 
ATOM     30  H   LIG d   1      11.146   8.417  -1.529  0.00  0.00     0.066 H 
ATOM     31  H   LIG d   1      10.138   9.397  -2.620  0.00  0.00     0.066 H 
ENDBRANCH  27  28
ENDBRANCH  18  27
ENDBRANCH   1  14
BRANCH  11  32
ATOM     32  O   LIG d   1       7.747  -2.320  -5.126  0.00  0.00    -0.490 OA
BRANCH  32  33
ATOM     33  C   LIG d   1       8.385  -3.362  -4.384  0.00  0.00     0.079 C 
ATOM     34  H   LIG d   1       8.878  -4.048  -5.071  0.00  0.00     0.066 H 
ATOM     35  H   LIG d   1       9.124  -2.929  -3.710  0.00  0.00     0.066 H 
ATOM     36  H   LIG d   1       7.638  -3.904  -3.804  0.00  0.00     0.066 H 
ENDBRANCH  32  33
ENDBRANCH  11  32
BRANCH   9  37
ATOM     37  O   LIG d   1       4.086  -0.871  -2.452  0.00  0.00    -0.491 OA
BRANCH  37  38
ATOM     38  C   LIG d   1       2.904  -0.443  -3.132  0.00  0.00     0.079 C 
ATOM     39  H   LIG d   1       2.130  -0.206  -2.401  0.00  0.00     0.066 H 
ATOM     40  H   LIG d   1       3.126   0.443  -3.726  0.00  0.00     0.066 H 
ATOM     41  H   LIG d   1       2.552  -1.241  -3.785  0.00  0.00     0.066 H 
ENDBRANCH  37  38
ENDBRANCH   9  37
BRANCH  10  42
ATOM     42  O   LIG d   1       5.346  -2.843  -3.890  0.00  0.00    -0.488 OA
BRANCH  42  43
ATOM     43  C   LIG d   1       4.667  -3.143  -5.111  0.00  0.00     0.079 C 
ATOM     44  H   LIG d   1       3.860  -2.426  -5.264  0.00  0.00     0.066 H 
ATOM     45  H   LIG d   1       4.253  -4.150  -5.059  0.00  0.00     0.066 H 
ATOM     46  H   LIG d   1       5.369  -3.081  -5.942  0.00  0.00     0.066 H 
ENDBRANCH  42  43
ENDBRANCH  10  42
TORSDOF 10
ENDMDL
MODEL 3
REMARK VINA RESULT:      -5.0      2.716      4.798
REMARK  10 active torsions:
REMARK  status: ('A' for Active; 'I' for Inactive)
REMARK    1  A    between atoms: C_1  and  C_2 
REMARK    2  A    between atoms: C_4  and  C_10 
REMARK    3  A    between atoms: C_7  and  O_8 
REMARK    4  A    between atoms: O_8  and  C_9 
REMARK    5  A    between atoms: C_18  and  O_25 
REMARK    6  A    between atoms: C_19  and  O_23 
REMARK    7  A    between atoms: C_20  and  O_21 
REMARK    8  A    between atoms: O_21  and  C_22 
REMARK    9  A    between atoms: O_23  and  C_24 
REMARK   10  A    between atoms: O_25  and  C_26 
ROOT
ATOM      1  C   LIG d   1       9.731   5.347  -3.640  0.00  0.00     0.139 A 
ATOM      2  C   LIG d   1       9.752   6.568  -4.238  0.00  0.00     0.029 A 
ATOM      3  C   LIG d   1      10.098   7.710  -3.478  0.00  0.00     0.197 A 
ATOM      4  O   LIG d   1      10.128   8.821  -3.982  0.00  0.00    -0.287 OA
ATOM      5  C   LIG d   1      10.420   7.507  -2.055  0.00  0.00     0.109 A 
ATOM      6  C   LIG d   1      10.368   6.201  -1.536  0.00  0.00     0.146 A 
ATOM      7  O   LIG d   1      10.027   5.172  -2.343  0.00  0.00    -0.454 OA
ATOM      8  C   LIG d   1      10.666   5.985  -0.200  0.00  0.00     0.027 A 
ATOM      9  C   LIG d   1      11.017   7.051   0.614  0.00  0.00     0.169 A 
ATOM     10  C   LIG d   1      11.065   8.346   0.105  0.00  0.00     0.204 A 
ATOM     11  C   LIG d   1      10.771   8.580  -1.229  0.00  0.00     0.179 A 
ATOM     12  H   LIG d   1       9.508   6.665  -5.285  0.00  0.00     0.069 H 
ATOM     13  H   LIG d   1      10.628   4.985   0.206  0.00  0.00     0.069 H 
ENDROOT
BRANCH   1  14
ATOM     14  C   LIG d   1       9.370   4.167  -4.449  0.00  0.00     0.018 A 
ATOM     15  C   LIG d   1       8.704   3.088  -3.859  0.00  0.00    -0.045 A 
ATOM     16  C   LIG d   1       8.368   1.990  -4.618  0.00  0.00    -0.008 A 
ATOM     17  H   LIG d   1       8.454   3.117  -2.809  0.00  0.00     0.063 H 
ATOM     18  C   LIG d   1       8.690   1.952  -5.969  0.00  0.00     0.123 A 
ATOM     19  C   LIG d   1       9.351   3.022  -6.561  0.00  0.00    -0.019 A 
ATOM     20  C   LIG d   1       9.686   4.127  -5.811  0.00  0.00    -0.048 A 
ATOM     21  H   LIG d   1       9.600   2.988  -7.611  0.00  0.00     0.065 H 
ATOM     22  H   LIG d   1      10.197   4.959  -6.272  0.00  0.00     0.063 H 
BRANCH  16  23
ATOM     23  C   LIG d   1       7.651   0.827  -3.982  0.00  0.00    -0.036 C 
ATOM     24  H   LIG d   1       6.977   0.375  -4.710  0.00  0.00     0.028 H 
ATOM     25  H   LIG d   1       8.381   0.086  -3.653  0.00  0.00     0.028 H 
ATOM     26  H   LIG d   1       7.078   1.178  -3.125  0.00  0.00     0.028 H 
ENDBRANCH  16  23
BRANCH  18  27
ATOM     27  O   LIG d   1       8.357   0.868  -6.715  0.00  0.00    -0.495 OA
BRANCH  27  28
ATOM     28  C   LIG d   1       7.351   1.049  -7.713  0.00  0.00     0.079 C 
ATOM     29  H   LIG d   1       7.702   1.767  -8.456  0.00  0.00     0.066 H 
ATOM     30  H   LIG d   1       7.145   0.095  -8.200  0.00  0.00     0.066 H 
ATOM     31  H   LIG d   1       6.440   1.424  -7.248  0.00  0.00     0.066 H 
ENDBRANCH  27  28
ENDBRANCH  18  27
ENDBRANCH   1  14
BRANCH  11  32
ATOM     32  O   LIG d   1      10.820   9.842  -1.730  0.00  0.00    -0.490 OA
BRANCH  32  33
ATOM     33  C   LIG d   1       9.752  10.723  -1.375  0.00  0.00     0.079 C 
ATOM     34  H   LIG d   1       8.927  10.144  -0.961  0.00  0.00     0.066 H 
ATOM     35  H   LIG d   1      10.102  11.439  -0.632  0.00  0.00     0.066 H 
ATOM     36  H   LIG d   1       9.412  11.257  -2.262  0.00  0.00     0.066 H 
ENDBRANCH  32  33
ENDBRANCH  11  32
BRANCH   9  37
ATOM     37  O   LIG d   1      11.313   6.830   1.922  0.00  0.00    -0.491 OA
BRANCH  37  38
ATOM     38  C   LIG d   1      10.840   5.610   2.496  0.00  0.00     0.079 C 
ATOM     39  H   LIG d   1      11.497   5.315   3.315  0.00  0.00     0.066 H 
ATOM     40  H   LIG d   1       9.829   5.756   2.876  0.00  0.00     0.066 H 
ATOM     41  H   LIG d   1      10.834   4.829   1.737  0.00  0.00     0.066 H 
ENDBRANCH  37  38
ENDBRANCH   9  37
BRANCH  10  42
ATOM     42  O   LIG d   1      11.408   9.384   0.917  0.00  0.00    -0.488 OA
BRANCH  42  43
ATOM     43  C   LIG d   1      12.800   9.694   1.020  0.00  0.00     0.079 C 
ATOM     44  H   LIG d   1      13.388   8.835   0.699  0.00  0.00     0.066 H 
ATOM     45  H   LIG d   1      13.043   9.934   2.055  0.00  0.00     0.066 H 
ATOM     46  H   LIG d   1      13.029  10.550   0.385  0.00  0.00     0.066 H 
ENDBRANCH  42  43
ENDBRANCH  10  42
TORSDOF 10
ENDMDL
MODEL 4
REMARK VINA RESULT:      -4.9      2.297      3.628
REMARK  10 active torsions:
REMARK  status: ('A' for Active; 'I' for Inactive)
REMARK    1  A    between atoms: C_1  and  C_2 
REMARK    2  A    between atoms: C_4  and  C_10 
REMARK    3  A    between atoms: C_7  and  O_8 
REMARK    4  A    between atoms: O_8  and  C_9 
REMARK    5  A    between atoms: C_18  and  O_25 
REMARK    6  A    between atoms: C_19  and  O_23 
REMARK    7  A    between atoms: C_20  and  O_21 
REMARK    8  A    between atoms: O_21  and  C_22 
REMARK    9  A    between atoms: O_23  and  C_24 
REMARK   10  A    between atoms: O_25  and  C_26 
ROOT
ATOM      1  C   LIG d   1       9.323   4.262  -4.051  0.00  0.00     0.139 A 
ATOM      2  C   LIG d   1       9.264   5.405  -4.785  0.00  0.00     0.029 A 
ATOM      3  C   LIG d   1       9.746   6.615  -4.232  0.00  0.00     0.197 A 
ATOM      4  O   LIG d   1       9.708   7.659  -4.863  0.00  0.00    -0.287 OA
ATOM      5  C   LIG d   1      10.293   6.566  -2.866  0.00  0.00     0.109 A 
ATOM      6  C   LIG d   1      10.309   5.331  -2.194  0.00  0.00     0.146 A 
ATOM      7  O   LIG d   1       9.825   4.228  -2.807  0.00  0.00    -0.454 OA
ATOM      8  C   LIG d   1      10.819   5.260  -0.908  0.00  0.00     0.027 A 
ATOM      9  C   LIG d   1      11.315   6.400  -0.293  0.00  0.00     0.169 A 
ATOM     10  C   LIG d   1      11.297   7.626  -0.953  0.00  0.00     0.204 A 
ATOM     11  C   LIG d   1      10.791   7.715  -2.241  0.00  0.00     0.179 A 
ATOM     12  H   LIG d   1       8.852   5.389  -5.783  0.00  0.00     0.069 H 
ATOM     13  H   LIG d   1      10.834   4.316  -0.384  0.00  0.00     0.069 H 
ENDROOT
BRANCH   1  14
ATOM     14  C   LIG d   1       8.817   3.010  -4.645  0.00  0.00     0.018 A 
ATOM     15  C   LIG d   1       8.150   2.075  -3.848  0.00  0.00    -0.045 A 
ATOM     16  C   LIG d   1       7.678   0.909  -4.408  0.00  0.00    -0.008 A 
ATOM     17  H   LIG d   1       8.005   2.267  -2.796  0.00  0.00     0.063 H 
ATOM     18  C   LIG d   1       7.865   0.659  -5.762  0.00  0.00     0.123 A 
ATOM     19  C   LIG d   1       8.528   1.586  -6.558  0.00  0.00    -0.019 A 
ATOM     20  C   LIG d   1       8.998   2.758  -6.009  0.00  0.00    -0.048 A 
ATOM     21  H   LIG d   1       8.671   1.388  -7.610  0.00  0.00     0.065 H 
ATOM     22  H   LIG d   1       9.509   3.479  -6.629  0.00  0.00     0.063 H 
BRANCH  16  23
ATOM     23  C   LIG d   1       6.959  -0.100  -3.549  0.00  0.00    -0.036 C 
ATOM     24  H   LIG d   1       6.829  -1.026  -4.110  0.00  0.00     0.028 H 
ATOM     25  H   LIG d   1       7.547  -0.298  -2.652  0.00  0.00     0.028 H 
ATOM     26  H   LIG d   1       5.984   0.293  -3.265  0.00  0.00     0.028 H 
ENDBRANCH  16  23
BRANCH  18  27
ATOM     27  O   LIG d   1       7.399  -0.492  -6.309  0.00  0.00    -0.495 OA
BRANCH  27  28
ATOM     28  C   LIG d   1       6.340  -0.376  -7.261  0.00  0.00     0.079 C 
ATOM     29  H   LIG d   1       5.903  -1.359  -7.441  0.00  0.00     0.066 H 
ATOM     30  H   LIG d   1       5.573   0.296  -6.873  0.00  0.00     0.066 H 
ATOM     31  H   LIG d   1       6.732   0.023  -8.196  0.00  0.00     0.066 H 
ENDBRANCH  27  28
ENDBRANCH  18  27
ENDBRANCH   1  14
BRANCH  11  32
ATOM     32  O   LIG d   1      10.775   8.908  -2.890  0.00  0.00    -0.490 OA
BRANCH  32  33
ATOM     33  C   LIG d   1      12.028   9.400  -3.371  0.00  0.00     0.079 C 
ATOM     34  H   LIG d   1      11.908  10.428  -3.712  0.00  0.00     0.066 H 
ATOM     35  H   LIG d   1      12.765   9.366  -2.569  0.00  0.00     0.066 H 
ATOM     36  H   LIG d   1      12.367   8.780  -4.201  0.00  0.00     0.066 H 
ENDBRANCH  32  33
ENDBRANCH  11  32
BRANCH   9  37
ATOM     37  O   LIG d   1      11.818   6.320   0.966  0.00  0.00    -0.491 OA
BRANCH  37  38
ATOM     38  C   LIG d   1      10.970   5.757   1.969  0.00  0.00     0.079 C 
ATOM     39  H   LIG d   1       9.928   5.880   1.675  0.00  0.00     0.066 H 
ATOM     40  H   LIG d   1      11.194   4.697   2.081  0.00  0.00     0.066 H 
ATOM     41  H   LIG d   1      11.141   6.267   2.917  0.00  0.00     0.066 H 
ENDBRANCH  37  38
ENDBRANCH   9  37
BRANCH  10  42
ATOM     42  O   LIG d   1      11.783   8.738  -0.337  0.00  0.00    -0.488 OA
BRANCH  42  43
ATOM     43  C   LIG d   1      10.863   9.499   0.449  0.00  0.00     0.079 C 
ATOM     44  H   LIG d   1      11.401  10.005   1.251  0.00  0.00     0.066 H 
ATOM     45  H   LIG d   1      10.114   8.833   0.879  0.00  0.00     0.066 H 
ATOM     46  H   LIG d   1      10.372  10.239  -0.182  0.00  0.00     0.066 H 
ENDBRANCH  42  43
ENDBRANCH  10  42
TORSDOF 10
ENDMDL
MODEL 5
REMARK VINA RESULT:      -4.9      5.293      7.174
REMARK  10 active torsions:
REMARK  status: ('A' for Active; 'I' for Inactive)
REMARK    1  A    between atoms: C_1  and  C_2 
REMARK    2  A    between atoms: C_4  and  C_10 
REMARK    3  A    between atoms: C_7  and  O_8 
REMARK    4  A    between atoms: O_8  and  C_9 
REMARK    5  A    between atoms: C_18  and  O_25 
REMARK    6  A    between atoms: C_19  and  O_23 
REMARK    7  A    between atoms: C_20  and  O_21 
REMARK    8  A    between atoms: O_21  and  C_22 
REMARK    9  A    between atoms: O_23  and  C_24 
REMARK   10  A    between atoms: O_25  and  C_26 
ROOT
ATOM      1  C   LIG d   1       9.955   7.834  -5.469  0.00  0.00     0.139 A 
ATOM      2  C   LIG d   1      10.299   9.149  -5.438  0.00  0.00     0.029 A 
ATOM      3  C   LIG d   1      10.594   9.764  -4.199  0.00  0.00     0.197 A 
ATOM      4  O   LIG d   1      10.908  10.942  -4.134  0.00  0.00    -0.287 OA
ATOM      5  C   LIG d   1      10.508   8.929  -2.989  0.00  0.00     0.109 A 
ATOM      6  C   LIG d   1      10.142   7.578  -3.131  0.00  0.00     0.146 A 
ATOM      7  O   LIG d   1       9.879   7.081  -4.361  0.00  0.00    -0.454 OA
ATOM      8  C   LIG d   1      10.054   6.772  -2.008  0.00  0.00     0.027 A 
ATOM      9  C   LIG d   1      10.330   7.296  -0.754  0.00  0.00     0.169 A 
ATOM     10  C   LIG d   1      10.687   8.634  -0.608  0.00  0.00     0.204 A 
ATOM     11  C   LIG d   1      10.781   9.454  -1.721  0.00  0.00     0.179 A 
ATOM     12  H   LIG d   1      10.348   9.720  -6.353  0.00  0.00     0.069 H 
ATOM     13  H   LIG d   1       9.773   5.734  -2.109  0.00  0.00     0.069 H 
ENDROOT
BRANCH   1  14
ATOM     14  C   LIG d   1       9.652   7.210  -6.771  0.00  0.00     0.018 A 
ATOM     15  C   LIG d   1       9.791   5.829  -6.936  0.00  0.00    -0.045 A 
ATOM     16  C   LIG d   1       9.505   5.251  -8.153  0.00  0.00    -0.008 A 
ATOM     17  H   LIG d   1      10.121   5.217  -6.111  0.00  0.00     0.063 H 
ATOM     18  C   LIG d   1       9.081   6.038  -9.216  0.00  0.00     0.123 A 
ATOM     19  C   LIG d   1       8.942   7.412  -9.057  0.00  0.00    -0.019 A 
ATOM     20  C   LIG d   1       9.219   7.998  -7.842  0.00  0.00    -0.048 A 
ATOM     21  H   LIG d   1       8.612   8.020  -9.886  0.00  0.00     0.065 H 
ATOM     22  H   LIG d   1       9.106   9.065  -7.718  0.00  0.00     0.063 H 
BRANCH  16  23
ATOM     23  C   LIG d   1       9.655   3.762  -8.332  0.00  0.00    -0.036 C 
ATOM     24  H   LIG d   1       9.978   3.315  -7.392  0.00  0.00     0.028 H 
ATOM     25  H   LIG d   1       8.698   3.333  -8.629  0.00  0.00     0.028 H 
ATOM     26  H   LIG d   1      10.398   3.562  -9.104  0.00  0.00     0.028 H 
ENDBRANCH  16  23
BRANCH  18  27
ATOM     27  O   LIG d   1       8.802   5.465 -10.414  0.00  0.00    -0.495 OA
BRANCH  27  28
ATOM     28  C   LIG d   1       9.140   6.210 -11.586  0.00  0.00     0.079 C 
ATOM     29  H   LIG d   1      10.178   6.013 -11.855  0.00  0.00     0.066 H 
ATOM     30  H   LIG d   1       8.489   5.910 -12.408  0.00  0.00     0.066 H 
ATOM     31  H   LIG d   1       9.012   7.274 -11.390  0.00  0.00     0.066 H 
ENDBRANCH  27  28
ENDBRANCH  18  27
ENDBRANCH   1  14
BRANCH  11  32
ATOM     32  O   LIG d   1      11.134  10.759  -1.583  0.00  0.00    -0.490 OA
BRANCH  32  33
ATOM     33  C   LIG d   1      10.157  11.638  -1.021  0.00  0.00     0.079 C 
ATOM     34  H   LIG d   1       9.699  12.227  -1.814  0.00  0.00     0.066 H 
ATOM     35  H   LIG d   1       9.391  11.053  -0.513  0.00  0.00     0.066 H 
ATOM     36  H   LIG d   1      10.638  12.305  -0.305  0.00  0.00     0.066 H 
ENDBRANCH  32  33
ENDBRANCH  11  32
BRANCH   9  37
ATOM     37  O   LIG d   1      10.246   6.498   0.342  0.00  0.00    -0.491 OA
BRANCH  37  38
ATOM     38  C   LIG d   1      11.325   5.588   0.566  0.00  0.00     0.079 C 
ATOM     39  H   LIG d   1      12.064   5.699  -0.228  0.00  0.00     0.066 H 
ATOM     40  H   LIG d   1      11.789   5.804   1.527  0.00  0.00     0.066 H 
ATOM     41  H   LIG d   1      10.944   4.567   0.566  0.00  0.00     0.066 H 
ENDBRANCH  37  38
ENDBRANCH   9  37
BRANCH  10  42
ATOM     42  O   LIG d   1      10.952   9.136   0.630  0.00  0.00    -0.488 OA
BRANCH  42  43
ATOM     43  C   LIG d   1      12.317   9.126   1.055  0.00  0.00     0.079 C 
ATOM     44  H   LIG d   1      12.422   9.736   1.953  0.00  0.00     0.066 H 
ATOM     45  H   LIG d   1      12.947   9.532   0.264  0.00  0.00     0.066 H 
ATOM     46  H   LIG d   1      12.622   8.103   1.274  0.00  0.00     0.066 H 
ENDBRANCH  42  43
ENDBRANCH  10  42
TORSDOF 10
ENDMDL
MODEL 6
REMARK VINA RESULT:      -4.9      1.941      7.837
REMARK  10 active torsions:
REMARK  status: ('A' for Active; 'I' for Inactive)
REMARK    1  A    between atoms: C_1  and  C_2 
REMARK    2  A    between atoms: C_4  and  C_10 
REMARK    3  A    between atoms: C_7  and  O_8 
REMARK    4  A    between atoms: O_8  and  C_9 
REMARK    5  A    between atoms: C_18  and  O_25 
REMARK    6  A    between atoms: C_19  and  O_23 
REMARK    7  A    between atoms: C_20  and  O_21 
REMARK    8  A    between atoms: O_21  and  C_22 
REMARK    9  A    between atoms: O_23  and  C_24 
REMARK   10  A    between atoms: O_25  and  C_26 
ROOT
ATOM      1  C   LIG d   1       8.781   2.976  -4.397  0.00  0.00     0.139 A 
ATOM      2  C   LIG d   1       8.961   2.666  -5.709  0.00  0.00     0.029 A 
ATOM      3  C   LIG d   1       8.348   1.508  -6.242  0.00  0.00     0.197 A 
ATOM      4  O   LIG d   1       8.487   1.201  -7.415  0.00  0.00    -0.287 OA
ATOM      5  C   LIG d   1       7.536   0.687  -5.328  0.00  0.00     0.109 A 
ATOM      6  C   LIG d   1       7.415   1.097  -3.988  0.00  0.00     0.146 A 
ATOM      7  O   LIG d   1       8.039   2.221  -3.572  0.00  0.00    -0.454 OA
ATOM      8  C   LIG d   1       6.657   0.341  -3.109  0.00  0.00     0.027 A 
ATOM      9  C   LIG d   1       6.020  -0.808  -3.552  0.00  0.00     0.169 A 
ATOM     10  C   LIG d   1       6.142  -1.221  -4.877  0.00  0.00     0.204 A 
ATOM     11  C   LIG d   1       6.896  -0.475  -5.770  0.00  0.00     0.179 A 
ATOM     12  H   LIG d   1       9.566   3.300  -6.338  0.00  0.00     0.069 H 
ATOM     13  H   LIG d   1       6.559   0.648  -2.078  0.00  0.00     0.069 H 
ENDROOT
BRANCH   1  14
ATOM     14  C   LIG d   1       9.427   4.188  -3.859  0.00  0.00     0.018 A 
ATOM     15  C   LIG d   1      10.132   4.131  -2.653  0.00  0.00    -0.045 A 
ATOM     16  C   LIG d   1      10.734   5.265  -2.155  0.00  0.00    -0.008 A 
ATOM     17  H   LIG d   1      10.204   3.199  -2.112  0.00  0.00     0.063 H 
ATOM     18  C   LIG d   1      10.641   6.465  -2.849  0.00  0.00     0.123 A 
ATOM     19  C   LIG d   1       9.941   6.526  -4.049  0.00  0.00    -0.019 A 
ATOM     20  C   LIG d   1       9.341   5.397  -4.557  0.00  0.00    -0.048 A 
ATOM     21  H   LIG d   1       9.872   7.461  -4.585  0.00  0.00     0.065 H 
ATOM     22  H   LIG d   1       8.801   5.444  -5.491  0.00  0.00     0.063 H 
BRANCH  16  23
ATOM     23  C   LIG d   1      11.493   5.205  -0.855  0.00  0.00    -0.036 C 
ATOM     24  H   LIG d   1      12.441   4.690  -1.012  0.00  0.00     0.028 H 
ATOM     25  H   LIG d   1      11.685   6.217  -0.498  0.00  0.00     0.028 H 
ATOM     26  H   LIG d   1      10.904   4.664  -0.115  0.00  0.00     0.028 H 
ENDBRANCH  16  23
BRANCH  18  27
ATOM     27  O   LIG d   1      11.236   7.581  -2.356  0.00  0.00    -0.495 OA
BRANCH  27  28
ATOM     28  C   LIG d   1      11.313   8.714  -3.222  0.00  0.00     0.079 C 
ATOM     29  H   LIG d   1      10.382   8.807  -3.782  0.00  0.00     0.066 H 
ATOM     30  H   LIG d   1      11.471   9.616  -2.629  0.00  0.00     0.066 H 
ATOM     31  H   LIG d   1      12.143   8.585  -3.917  0.00  0.00     0.066 H 
ENDBRANCH  27  28
ENDBRANCH  18  27
ENDBRANCH   1  14
BRANCH  11  32
ATOM     32  O   LIG d   1       7.013  -0.872  -7.064  0.00  0.00    -0.490 OA
BRANCH  32  33
ATOM     33  C   LIG d   1       5.872  -0.685  -7.905  0.00  0.00     0.079 C 
ATOM     34  H   LIG d   1       5.448   0.302  -7.728  0.00  0.00     0.066 H 
ATOM     35  H   LIG d   1       6.173  -0.770  -8.950  0.00  0.00     0.066 H 
ATOM     36  H   LIG d   1       5.127  -1.447  -7.680  0.00  0.00     0.066 H 
ENDBRANCH  32  33
ENDBRANCH  11  32
BRANCH   9  37
ATOM     37  O   LIG d   1       5.274  -1.541  -2.684  0.00  0.00    -0.491 OA
BRANCH  37  38
ATOM     38  C   LIG d   1       4.333  -0.831  -1.878  0.00  0.00     0.079 C 
ATOM     39  H   LIG d   1       4.380  -1.201  -0.853  0.00  0.00     0.066 H 
ATOM     40  H   LIG d   1       4.571   0.232  -1.892  0.00  0.00     0.066 H 
ATOM     41  H   LIG d   1       3.328  -0.984  -2.272  0.00  0.00     0.066 H 
ENDBRANCH  37  38
ENDBRANCH   9  37
BRANCH  10  42
ATOM     42  O   LIG d   1       5.514  -2.353  -5.297  0.00  0.00    -0.488 OA
BRANCH  42  43
ATOM     43  C   LIG d   1       6.234  -3.581  -5.165  0.00  0.00     0.079 C 
ATOM     44  H   LIG d   1       7.212  -3.383  -4.728  0.00  0.00     0.066 H 
ATOM     45  H   LIG d   1       6.361  -4.036  -6.148  0.00  0.00     0.066 H 
ATOM     46  H   LIG d   1       5.678  -4.261  -4.520  0.00  0.00     0.066 H 
ENDBRANCH  42  43
ENDBRANCH  10  42
TORSDOF 10
ENDMDL
MODEL 7
REMARK VINA RESULT:      -4.9      6.145      9.677
REMARK  10 active torsions:
REMARK  status: ('A' for Active; 'I' for Inactive)
REMARK    1  A    between atoms: C_1  and  C_2 
REMARK    2  A    between atoms: C_4  and  C_10 
REMARK    3  A    between atoms: C_7  and  O_8 
REMARK    4  A    between atoms: O_8  and  C_9 
REMARK    5  A    between atoms: C_18  and  O_25 
REMARK    6  A    between atoms: C_19  and  O_23 
REMARK    7  A    between atoms: C_20  and  O_21 
REMARK    8  A    between atoms: O_21  and  C_22 
REMARK    9  A    between atoms: O_23  and  C_24 
REMARK   10  A    between atoms: O_25  and  C_26 
ROOT
ATOM      1  C   LIG d   1       2.776  -1.451  -8.820  0.00  0.00     0.139 A 
ATOM      2  C   LIG d   1       2.487  -0.234  -8.287  0.00  0.00     0.029 A 
ATOM      3  C   LIG d   1       3.069   0.144  -7.054  0.00  0.00     0.197 A 
ATOM      4  O   LIG d   1       2.832   1.228  -6.547  0.00  0.00    -0.287 OA
ATOM      5  C   LIG d   1       3.971  -0.823  -6.405  0.00  0.00     0.109 A 
ATOM      6  C   LIG d   1       4.204  -2.055  -7.042  0.00  0.00     0.146 A 
ATOM      7  O   LIG d   1       3.601  -2.324  -8.221  0.00  0.00    -0.454 OA
ATOM      8  C   LIG d   1       5.049  -2.980  -6.451  0.00  0.00     0.027 A 
ATOM      9  C   LIG d   1       5.663  -2.687  -5.243  0.00  0.00     0.169 A 
ATOM     10  C   LIG d   1       5.431  -1.471  -4.606  0.00  0.00     0.204 A 
ATOM     11  C   LIG d   1       4.589  -0.533  -5.184  0.00  0.00     0.179 A 
ATOM     12  H   LIG d   1       1.818   0.439  -8.801  0.00  0.00     0.069 H 
ATOM     13  H   LIG d   1       5.232  -3.929  -6.933  0.00  0.00     0.069 H 
ENDROOT
BRANCH   1  14
ATOM     14  C   LIG d   1       2.161  -1.826 -10.107  0.00  0.00     0.018 A 
ATOM     15  C   LIG d   1       1.477  -3.040 -10.230  0.00  0.00    -0.045 A 
ATOM     16  C   LIG d   1       0.903  -3.385 -11.433  0.00  0.00    -0.008 A 
ATOM     17  H   LIG d   1       1.400  -3.705  -9.384  0.00  0.00     0.063 H 
ATOM     18  C   LIG d   1       1.003  -2.530 -12.524  0.00  0.00     0.123 A 
ATOM     19  C   LIG d   1       1.682  -1.323 -12.406  0.00  0.00    -0.019 A 
ATOM     20  C   LIG d   1       2.254  -0.966 -11.206  0.00  0.00    -0.048 A 
ATOM     21  H   LIG d   1       1.757  -0.662 -13.257  0.00  0.00     0.065 H 
ATOM     22  H   LIG d   1       2.777  -0.026 -11.114  0.00  0.00     0.063 H 
BRANCH  16  23
ATOM     23  C   LIG d   1       0.167  -4.693 -11.567  0.00  0.00    -0.036 C 
ATOM     24  H   LIG d   1      -0.194  -4.802 -12.590  0.00  0.00     0.028 H 
ATOM     25  H   LIG d   1       0.843  -5.516 -11.331  0.00  0.00     0.028 H 
ATOM     26  H   LIG d   1      -0.677  -4.707 -10.879  0.00  0.00     0.028 H 
ENDBRANCH  16  23
BRANCH  18  27
ATOM     27  O   LIG d   1       0.437  -2.875 -13.709  0.00  0.00    -0.495 OA
BRANCH  27  28
ATOM     28  C   LIG d   1      -0.730  -2.152 -14.105  0.00  0.00     0.079 C 
ATOM     29  H   LIG d   1      -0.878  -2.261 -15.179  0.00  0.00     0.066 H 
ATOM     30  H   LIG d   1      -1.599  -2.547 -13.577  0.00  0.00     0.066 H 
ATOM     31  H   LIG d   1      -0.606  -1.097 -13.860  0.00  0.00     0.066 H 
ENDBRANCH  27  28
ENDBRANCH  18  27
ENDBRANCH   1  14
BRANCH  11  32
ATOM     32  O   LIG d   1       4.365   0.657  -4.568  0.00  0.00    -0.490 OA
BRANCH  32  33
ATOM     33  C   LIG d   1       3.500   0.644  -3.429  0.00  0.00     0.079 C 
ATOM     34  H   LIG d   1       2.731   1.406  -3.549  0.00  0.00     0.066 H 
ATOM     35  H   LIG d   1       3.031  -0.336  -3.340  0.00  0.00     0.066 H 
ATOM     36  H   LIG d   1       4.081   0.851  -2.531  0.00  0.00     0.066 H 
ENDBRANCH  32  33
ENDBRANCH  11  32
BRANCH   9  37
ATOM     37  O   LIG d   1       6.494  -3.598  -4.672  0.00  0.00    -0.491 OA
BRANCH  37  38
ATOM     38  C   LIG d   1       7.801  -3.725  -5.236  0.00  0.00     0.079 C 
ATOM     39  H   LIG d   1       7.840  -3.194  -6.187  0.00  0.00     0.066 H 
ATOM     40  H   LIG d   1       8.535  -3.299  -4.552  0.00  0.00     0.066 H 
ATOM     41  H   LIG d   1       8.025  -4.779  -5.400  0.00  0.00     0.066 H 
ENDBRANCH  37  38
ENDBRANCH   9  37
BRANCH  10  42
ATOM     42  O   LIG d   1       6.038  -1.198  -3.418  0.00  0.00    -0.488 OA
BRANCH  42  43
ATOM     43  C   LIG d   1       7.219  -0.393  -3.462  0.00  0.00     0.079 C 
ATOM     44  H   LIG d   1       8.097  -1.031  -3.364  0.00  0.00     0.066 H 
ATOM     45  H   LIG d   1       7.200   0.326  -2.644  0.00  0.00     0.066 H 
ATOM     46  H   LIG d   1       7.260   0.139  -4.413  0.00  0.00     0.066 H 
ENDBRANCH  42  43
ENDBRANCH  10  42
TORSDOF 10
ENDMDL
MODEL 8
REMARK VINA RESULT:      -4.7      2.482      4.203
REMARK  10 active torsions:
REMARK  status: ('A' for Active; 'I' for Inactive)
REMARK    1  A    between atoms: C_1  and  C_2 
REMARK    2  A    between atoms: C_4  and  C_10 
REMARK    3  A    between atoms: C_7  and  O_8 
REMARK    4  A    between atoms: O_8  and  C_9 
REMARK    5  A    between atoms: C_18  and  O_25 
REMARK    6  A    between atoms: C_19  and  O_23 
REMARK    7  A    between atoms: C_20  and  O_21 
REMARK    8  A    between atoms: O_21  and  C_22 
REMARK    9  A    between atoms: O_23  and  C_24 
REMARK   10  A    between atoms: O_25  and  C_26 
ROOT
ATOM      1  C   LIG d   1       9.177   4.085  -4.185  0.00  0.00     0.139 A 
ATOM      2  C   LIG d   1       9.755   4.123  -2.955  0.00  0.00     0.029 A 
ATOM      3  C   LIG d   1      10.230   5.355  -2.445  0.00  0.00     0.197 A 
ATOM      4  O   LIG d   1      10.754   5.426  -1.345  0.00  0.00    -0.287 OA
ATOM      5  C   LIG d   1      10.069   6.548  -3.293  0.00  0.00     0.109 A 
ATOM      6  C   LIG d   1       9.456   6.399  -4.550  0.00  0.00     0.146 A 
ATOM      7  O   LIG d   1       9.034   5.179  -4.950  0.00  0.00    -0.454 OA
ATOM      8  C   LIG d   1       9.293   7.507  -5.366  0.00  0.00     0.027 A 
ATOM      9  C   LIG d   1       9.728   8.753  -4.941  0.00  0.00     0.169 A 
ATOM     10  C   LIG d   1      10.340   8.904  -3.699  0.00  0.00     0.204 A 
ATOM     11  C   LIG d   1      10.510   7.806  -2.869  0.00  0.00     0.179 A 
ATOM     12  H   LIG d   1       9.851   3.221  -2.371  0.00  0.00     0.069 H 
ATOM     13  H   LIG d   1       8.824   7.401  -6.333  0.00  0.00     0.069 H 
ENDROOT
BRANCH   1  14
ATOM     14  C   LIG d   1       8.687   2.792  -4.699  0.00  0.00     0.018 A 
ATOM     15  C   LIG d   1       8.010   1.911  -3.850  0.00  0.00    -0.045 A 
ATOM     16  C   LIG d   1       7.554   0.706  -4.335  0.00  0.00    -0.008 A 
ATOM     17  H   LIG d   1       7.846   2.175  -2.817  0.00  0.00     0.063 H 
ATOM     18  C   LIG d   1       7.765   0.364  -5.665  0.00  0.00     0.123 A 
ATOM     19  C   LIG d   1       8.438   1.237  -6.512  0.00  0.00    -0.019 A 
ATOM     20  C   LIG d   1       8.892   2.447  -6.039  0.00  0.00    -0.048 A 
ATOM     21  H   LIG d   1       8.600   0.967  -7.545  0.00  0.00     0.065 H 
ATOM     22  H   LIG d   1       9.411   3.126  -6.698  0.00  0.00     0.063 H 
BRANCH  16  23
ATOM     23  C   LIG d   1       6.825  -0.245  -3.421  0.00  0.00    -0.036 C 
ATOM     24  H   LIG d   1       6.613  -1.171  -3.955  0.00  0.00     0.028 H 
ATOM     25  H   LIG d   1       7.447  -0.462  -2.551  0.00  0.00     0.028 H 
ATOM     26  H   LIG d   1       5.890   0.209  -3.095  0.00  0.00     0.028 H 
ENDBRANCH  16  23
BRANCH  18  27
ATOM     27  O   LIG d   1       7.314  -0.825  -6.139  0.00  0.00    -0.495 OA
BRANCH  27  28
ATOM     28  C   LIG d   1       6.289  -0.782  -7.132  0.00  0.00     0.079 C 
ATOM     29  H   LIG d   1       6.349  -1.673  -7.757  0.00  0.00     0.066 H 
ATOM     30  H   LIG d   1       5.313  -0.745  -6.646  0.00  0.00     0.066 H 
ATOM     31  H   LIG d   1       6.419   0.105  -7.751  0.00  0.00     0.066 H 
ENDBRANCH  27  28
ENDBRANCH  18  27
ENDBRANCH   1  14
BRANCH  11  32
ATOM     32  O   LIG d   1      11.103   7.951  -1.656  0.00  0.00    -0.490 OA
BRANCH  32  33
ATOM     33  C   LIG d   1      10.324   8.559  -0.622  0.00  0.00     0.079 C 
ATOM     34  H   LIG d   1      10.720   9.550  -0.406  0.00  0.00     0.066 H 
ATOM     35  H   LIG d   1       9.288   8.644  -0.951  0.00  0.00     0.066 H 
ATOM     36  H   LIG d   1      10.371   7.944   0.276  0.00  0.00     0.066 H 
ENDBRANCH  32  33
ENDBRANCH  11  32
BRANCH   9  37
ATOM     37  O   LIG d   1       9.560   9.835  -5.745  0.00  0.00    -0.491 OA
BRANCH  37  38
ATOM     38  C   LIG d   1       9.975   9.703  -7.105  0.00  0.00     0.079 C 
ATOM     39  H   LIG d   1       9.738  10.618  -7.648  0.00  0.00     0.066 H 
ATOM     40  H   LIG d   1      11.050   9.527  -7.142  0.00  0.00     0.066 H 
ATOM     41  H   LIG d   1       9.453   8.863  -7.565  0.00  0.00     0.066 H 
ENDBRANCH  37  38
ENDBRANCH   9  37
BRANCH  10  42
ATOM     42  O   LIG d   1      10.766  10.133  -3.295  0.00  0.00    -0.488 OA
BRANCH  42  43
ATOM     43  C   LIG d   1      12.103  10.502  -3.642  0.00  0.00     0.079 C 
ATOM     44  H   LIG d   1      12.228  11.576  -3.511  0.00  0.00     0.066 H 
ATOM     45  H   LIG d   1      12.295  10.237  -4.682  0.00  0.00     0.066 H 
ATOM     46  H   LIG d   1      12.804   9.973  -2.997  0.00  0.00     0.066 H 
ENDBRANCH  42  43
ENDBRANCH  10  42
TORSDOF 10
ENDMDL
MODEL 9
REMARK VINA RESULT:      -4.7      2.086      8.037
REMARK  10 active torsions:
REMARK  status: ('A' for Active; 'I' for Inactive)
REMARK    1  A    between atoms: C_1  and  C_2 
REMARK    2  A    between atoms: C_4  and  C_10 
REMARK    3  A    between atoms: C_7  and  O_8 
REMARK    4  A    between atoms: O_8  and  C_9 
REMARK    5  A    between atoms: C_18  and  O_25 
REMARK    6  A    between atoms: C_19  and  O_23 
REMARK    7  A    between atoms: C_20  and  O_21 
REMARK    8  A    between atoms: O_21  and  C_22 
REMARK    9  A    between atoms: O_23  and  C_24 
REMARK   10  A    between atoms: O_25  and  C_26 
ROOT
ATOM      1  C   LIG d   1       8.886   2.622  -5.294  0.00  0.00     0.139 A 
ATOM      2  C   LIG d   1       9.438   1.533  -5.892  0.00  0.00     0.029 A 
ATOM      3  C   LIG d   1       8.931   0.244  -5.600  0.00  0.00     0.197 A 
ATOM      4  O   LIG d   1       9.403  -0.754  -6.119  0.00  0.00    -0.287 OA
ATOM      5  C   LIG d   1       7.814   0.155  -4.644  0.00  0.00     0.109 A 
ATOM      6  C   LIG d   1       7.316   1.344  -4.082  0.00  0.00     0.146 A 
ATOM      7  O   LIG d   1       7.867   2.529  -4.425  0.00  0.00    -0.454 OA
ATOM      8  C   LIG d   1       6.266   1.285  -3.181  0.00  0.00     0.027 A 
ATOM      9  C   LIG d   1       5.709   0.061  -2.842  0.00  0.00     0.169 A 
ATOM     10  C   LIG d   1       6.203  -1.119  -3.393  0.00  0.00     0.204 A 
ATOM     11  C   LIG d   1       7.253  -1.078  -4.297  0.00  0.00     0.179 A 
ATOM     12  H   LIG d   1      10.257   1.650  -6.585  0.00  0.00     0.069 H 
ATOM     13  H   LIG d   1       5.878   2.193  -2.744  0.00  0.00     0.069 H 
ENDROOT
BRANCH   1  14
ATOM     14  C   LIG d   1       9.427   3.957  -5.612  0.00  0.00     0.018 A 
ATOM     15  C   LIG d   1       9.443   4.958  -4.636  0.00  0.00    -0.045 A 
ATOM     16  C   LIG d   1       9.951   6.202  -4.938  0.00  0.00    -0.008 A 
ATOM     17  H   LIG d   1       9.060   4.755  -3.648  0.00  0.00     0.063 H 
ATOM     18  C   LIG d   1      10.444   6.464  -6.210  0.00  0.00     0.123 A 
ATOM     19  C   LIG d   1      10.429   5.472  -7.183  0.00  0.00    -0.019 A 
ATOM     20  C   LIG d   1       9.930   4.223  -6.890  0.00  0.00    -0.048 A 
ATOM     21  H   LIG d   1      10.814   5.680  -8.171  0.00  0.00     0.065 H 
ATOM     22  H   LIG d   1       9.923   3.452  -7.645  0.00  0.00     0.063 H 
BRANCH  16  23
ATOM     23  C   LIG d   1       9.968   7.281  -3.886  0.00  0.00    -0.036 C 
ATOM     24  H   LIG d   1       9.393   8.138  -4.237  0.00  0.00     0.028 H 
ATOM     25  H   LIG d   1       9.527   6.899  -2.965  0.00  0.00     0.028 H 
ATOM     26  H   LIG d   1      10.997   7.587  -3.697  0.00  0.00     0.028 H 
ENDBRANCH  16  23
BRANCH  18  27
ATOM     27  O   LIG d   1      10.943   7.692  -6.503  0.00  0.00    -0.495 OA
BRANCH  27  28
ATOM     28  C   LIG d   1      10.771   8.160  -7.842  0.00  0.00     0.079 C 
ATOM     29  H   LIG d   1       9.735   8.468  -7.989  0.00  0.00     0.066 H 
ATOM     30  H   LIG d   1      11.431   9.010  -8.018  0.00  0.00     0.066 H 
ATOM     31  H   LIG d   1      11.014   7.360  -8.541  0.00  0.00     0.066 H 
ENDBRANCH  27  28
ENDBRANCH  18  27
ENDBRANCH   1  14
BRANCH  11  32
ATOM     32  O   LIG d   1       7.734  -2.227  -4.839  0.00  0.00    -0.490 OA
BRANCH  32  33
ATOM     33  C   LIG d   1       8.481  -3.088  -3.976  0.00  0.00     0.079 C 
ATOM     34  H   LIG d   1       7.922  -4.009  -3.810  0.00  0.00     0.066 H 
ATOM     35  H   LIG d   1       9.440  -3.323  -4.438  0.00  0.00     0.066 H 
ATOM     36  H   LIG d   1       8.649  -2.588  -3.023  0.00  0.00     0.066 H 
ENDBRANCH  32  33
ENDBRANCH  11  32
BRANCH   9  37
ATOM     37  O   LIG d   1       4.676   0.013  -1.961  0.00  0.00    -0.491 OA
BRANCH  37  38
ATOM     38  C   LIG d   1       3.490   0.729  -2.313  0.00  0.00     0.079 C 
ATOM     39  H   LIG d   1       3.680   1.800  -2.248  0.00  0.00     0.066 H 
ATOM     40  H   LIG d   1       3.199   0.473  -3.331  0.00  0.00     0.066 H 
ATOM     41  H   LIG d   1       2.687   0.461  -1.626  0.00  0.00     0.066 H 
ENDBRANCH  37  38
ENDBRANCH   9  37
BRANCH  10  42
ATOM     42  O   LIG d   1       5.649  -2.314  -3.048  0.00  0.00    -0.488 OA
BRANCH  42  43
ATOM     43  C   LIG d   1       4.563  -2.782  -3.852  0.00  0.00     0.079 C 
ATOM     44  H   LIG d   1       4.531  -2.216  -4.784  0.00  0.00     0.066 H 
ATOM     45  H   LIG d   1       3.626  -2.646  -3.313  0.00  0.00     0.066 H 
ATOM     46  H   LIG d   1       4.705  -3.839  -4.074  0.00  0.00     0.066 H 
ENDBRANCH  42  43
ENDBRANCH  10  42
TORSDOF 10
ENDMDL
