MODEL 1
REMARK VINA RESULT:      -8.1      0.000      0.000
REMARK  7 active torsions:
REMARK  status: ('A' for Active; 'I' for Inactive)
REMARK    1  A    between atoms: C_4  and  N_7 
REMARK    2  A    between atoms: N_10  and  C_13 
REMARK    3  A    between atoms: C_13  and  C_14 
REMARK    4  A    between atoms: C_16  and  C_19 
REMARK    5  A    between atoms: C_19  and  C_20 
REMARK    6  A    between atoms: C_26  and  C_28 
REMARK    7  A    between atoms: C_28  and  C_29 
REMARK       I    between atoms: C_29  and  N_31 
ROOT
ATOM      1  C   LIG d   1       5.533   1.173  -9.522  0.00  0.00     0.008 C 
ATOM      2  H   LIG d   1       5.417   2.257  -9.478  0.00  0.00     0.036 H 
ATOM      3  C   LIG d   1       4.697   0.617 -10.676  0.00  0.00    -0.030 C 
ATOM      4  N   LIG d   1       3.282   0.946 -10.463  0.00  0.00     0.227 N 
ATOM      5  C   LIG d   1       2.797   0.294  -9.241  0.00  0.00    -0.033 C 
ATOM      6  C   LIG d   1       3.560   0.840  -8.031  0.00  0.00    -0.009 C 
ATOM      7  C   LIG d   1       5.055   0.554  -8.206  0.00  0.00    -0.020 C 
ATOM      8  H   LIG d   1       5.609   0.991  -7.375  0.00  0.00     0.031 H 
ATOM      9  H   LIG d   1       5.035   1.056 -11.615  0.00  0.00     0.082 H 
ATOM     10  H   LIG d   1       4.814  -0.467 -10.720  0.00  0.00     0.082 H 
ATOM     11  H   LIG d   1       3.180   1.946 -10.375  0.00  0.00     0.201 HD
ATOM     12  H   LIG d   1       1.733   0.497  -9.120  0.00  0.00     0.081 H 
ATOM     13  H   LIG d   1       2.955  -0.781  -9.315  0.00  0.00     0.081 H 
ATOM     14  H   LIG d   1       3.403   1.915  -7.956  0.00  0.00     0.032 H 
ATOM     15  H   LIG d   1       3.200   0.354  -7.125  0.00  0.00     0.032 H 
ATOM     16  H   LIG d   1       2.741   0.624 -11.253  0.00  0.00     0.201 HD
ENDROOT
BRANCH   1  17
ATOM     17  C   LIG d   1       7.007   0.827  -9.745  0.00  0.00     0.001 C 
ATOM     18  H   LIG d   1       7.210   0.779 -10.815  0.00  0.00     0.033 H 
ATOM     19  H   LIG d   1       7.226  -0.138  -9.289  0.00  0.00     0.033 H 
BRANCH  17  20
ATOM     20  C   LIG d   1       7.872   1.889  -9.117  0.00  0.00     0.084 A 
ATOM     21  C   LIG d   1       8.867   1.674  -8.146  0.00  0.00     0.005 A 
ATOM     22  C   LIG d   1       9.416   2.865  -7.839  0.00  0.00     0.151 A 
ATOM     23  H   LIG d   1       9.143   0.721  -7.721  0.00  0.00     0.067 H 
ATOM     24  O   LIG d   1       8.802   3.807  -8.572  0.00  0.00    -0.358 OA
ATOM     25  N   LIG d   1       7.831   3.164  -9.378  0.00  0.00    -0.083 NA
BRANCH  22  26
ATOM     26  C   LIG d   1      10.521   3.101  -6.842  0.00  0.00     0.060 C 
ATOM     27  H   LIG d   1      11.250   3.794  -7.264  0.00  0.00     0.051 H 
ATOM     28  H   LIG d   1      11.010   2.156  -6.610  0.00  0.00     0.051 H 
BRANCH  26  29
ATOM     29  N   LIG d   1       9.956   3.675  -5.613  0.00  0.00    -0.292 N 
ATOM     30  C   LIG d   1      10.466   2.979  -4.424  0.00  0.00     0.015 C 
ATOM     31  C   LIG d   1       9.721   3.481  -3.183  0.00  0.00     0.025 C 
ATOM     32  H   LIG d   1      11.532   3.179  -4.314  0.00  0.00     0.044 H 
ATOM     33  H   LIG d   1      10.307   1.907  -4.535  0.00  0.00     0.044 H 
ATOM     34  N   LIG d   1       9.825   4.948  -3.138  0.00  0.00    -0.328 N 
ATOM     35  H   LIG d   1      10.171   3.055  -2.287  0.00  0.00     0.048 H 
ATOM     36  H   LIG d   1       8.672   3.191  -3.244  0.00  0.00     0.048 H 
ATOM     37  C   LIG d   1       9.456   5.710  -4.341  0.00  0.00     0.025 C 
ATOM     38  C   LIG d   1      10.217   5.119  -5.539  0.00  0.00     0.015 C 
ATOM     39  H   LIG d   1       8.382   5.629  -4.510  0.00  0.00     0.048 H 
ATOM     40  H   LIG d   1       9.731   6.757  -4.211  0.00  0.00     0.048 H 
ATOM     41  H   LIG d   1      11.287   5.290  -5.413  0.00  0.00     0.044 H 
ATOM     42  H   LIG d   1       9.877   5.598  -6.456  0.00  0.00     0.044 H 
BRANCH  34  43
ATOM     43  C   LIG d   1      10.258   5.600  -1.981  0.00  0.00     0.030 A 
ATOM     44  C   LIG d   1       9.726   6.838  -1.638  0.00  0.00    -0.041 A 
ATOM     45  C   LIG d   1      10.157   7.479  -0.494  0.00  0.00    -0.060 A 
ATOM     46  H   LIG d   1       8.978   7.297  -2.266  0.00  0.00     0.064 H 
ATOM     47  C   LIG d   1      11.116   6.892   0.311  0.00  0.00    -0.062 A 
ATOM     48  H   LIG d   1       9.744   8.440  -0.227  0.00  0.00     0.062 H 
ATOM     49  C   LIG d   1      11.647   5.660  -0.027  0.00  0.00    -0.060 A 
ATOM     50  H   LIG d   1      11.454   7.398   1.203  0.00  0.00     0.062 H 
ATOM     51  C   LIG d   1      11.221   5.013  -1.170  0.00  0.00    -0.041 A 
ATOM     52  H   LIG d   1      12.395   5.204   0.604  0.00  0.00     0.062 H 
ATOM     53  H   LIG d   1      11.635   4.051  -1.434  0.00  0.00     0.064 H 
ENDBRANCH  34  43
ENDBRANCH  26  29
ENDBRANCH  22  26
ENDBRANCH  17  20
ENDBRANCH   1  17
BRANCH   7  54
ATOM     54  C   LIG d   1       5.285  -0.958  -8.239  0.00  0.00     0.028 C 
ATOM     55  H   LIG d   1       4.347  -1.473  -8.036  0.00  0.00     0.036 H 
ATOM     56  H   LIG d   1       5.654  -1.248  -9.223  0.00  0.00     0.036 H 
BRANCH  54  57
ATOM     57  C   LIG d   1       6.302  -1.333  -7.191  0.00  0.00     0.216 C 
ATOM     58  O   LIG d   1       7.461  -1.500  -7.502  0.00  0.00    -0.276 OA
ATOM     59  N   LIG d   1       5.920  -1.483  -5.907  0.00  0.00    -0.297 N 
ATOM     60  C   LIG d   1       4.526  -1.287  -5.497  0.00  0.00     0.040 C 
ATOM     61  C   LIG d   1       6.889  -1.842  -4.858  0.00  0.00     0.019 C 
ATOM     62  C   LIG d   1       4.472  -0.476  -4.231  0.00  0.00    -0.027 A 
ATOM     63  H   LIG d   1       3.986  -0.763  -6.286  0.00  0.00     0.051 H 
ATOM     64  H   LIG d   1       4.060  -2.258  -5.322  0.00  0.00     0.051 H 
ATOM     65  C   LIG d   1       5.595  -0.207  -3.481  0.00  0.00    -0.041 A 
ATOM     66  C   LIG d   1       3.235  -0.000  -3.818  0.00  0.00    -0.057 A 
ATOM     67  C   LIG d   1       6.972  -0.676  -3.875  0.00  0.00    -0.011 C 
ATOM     68  C   LIG d   1       5.475   0.527  -2.308  0.00  0.00    -0.058 A 
ATOM     69  H   LIG d   1       7.510  -0.996  -2.982  0.00  0.00     0.033 H 
ATOM     70  H   LIG d   1       7.512   0.148  -4.340  0.00  0.00     0.033 H 
ATOM     71  C   LIG d   1       4.245   0.995  -1.896  0.00  0.00    -0.061 A 
ATOM     72  H   LIG d   1       6.353   0.735  -1.714  0.00  0.00     0.062 H 
ATOM     73  C   LIG d   1       3.119   0.733  -2.655  0.00  0.00    -0.061 A 
ATOM     74  H   LIG d   1       4.160   1.565  -0.982  0.00  0.00     0.062 H 
ATOM     75  H   LIG d   1       2.154   1.100  -2.339  0.00  0.00     0.062 H 
ATOM     76  H   LIG d   1       2.357  -0.206  -4.411  0.00  0.00     0.062 H 
ATOM     77  H   LIG d   1       6.553  -2.740  -4.337  0.00  0.00     0.047 H 
ATOM     78  H   LIG d   1       7.868  -2.018  -5.304  0.00  0.00     0.047 H 
ENDBRANCH  54  57
ENDBRANCH   7  54
TORSDOF 7
ENDMDL
MODEL 2
REMARK VINA RESULT:      -7.9      2.663      8.585
REMARK  7 active torsions:
REMARK  status: ('A' for Active; 'I' for Inactive)
REMARK    1  A    between atoms: C_4  and  N_7 
REMARK    2  A    between atoms: N_10  and  C_13 
REMARK    3  A    between atoms: C_13  and  C_14 
REMARK    4  A    between atoms: C_16  and  C_19 
REMARK    5  A    between atoms: C_19  and  C_20 
REMARK    6  A    between atoms: C_26  and  C_28 
REMARK    7  A    between atoms: C_28  and  C_29 
REMARK       I    between atoms: C_29  and  N_31 
ROOT
ATOM      1  C   LIG d   1       3.962  -2.338  -4.077  0.00  0.00     0.008 C 
ATOM      2  H   LIG d   1       2.998  -2.755  -4.373  0.00  0.00     0.036 H 
ATOM      3  C   LIG d   1       3.884  -1.850  -2.629  0.00  0.00    -0.030 C 
ATOM      4  N   LIG d   1       2.848  -0.816  -2.512  0.00  0.00     0.227 N 
ATOM      5  C   LIG d   1       3.212   0.348  -3.329  0.00  0.00    -0.033 C 
ATOM      6  C   LIG d   1       3.262  -0.055  -4.804  0.00  0.00    -0.009 C 
ATOM      7  C   LIG d   1       4.309  -1.159  -4.990  0.00  0.00    -0.020 C 
ATOM      8  H   LIG d   1       4.309  -1.490  -6.029  0.00  0.00     0.031 H 
ATOM      9  H   LIG d   1       3.637  -2.687  -1.976  0.00  0.00     0.082 H 
ATOM     10  H   LIG d   1       4.848  -1.432  -2.334  0.00  0.00     0.082 H 
ATOM     11  H   LIG d   1       1.966  -1.188  -2.830  0.00  0.00     0.201 HD
ATOM     12  H   LIG d   1       2.467   1.133  -3.192  0.00  0.00     0.081 H 
ATOM     13  H   LIG d   1       4.189   0.718  -3.019  0.00  0.00     0.081 H 
ATOM     14  H   LIG d   1       2.286  -0.425  -5.114  0.00  0.00     0.032 H 
ATOM     15  H   LIG d   1       3.534   0.810  -5.409  0.00  0.00     0.032 H 
ATOM     16  H   LIG d   1       2.763  -0.535  -1.546  0.00  0.00     0.201 HD
ENDROOT
BRANCH   1  17
ATOM     17  C   LIG d   1       5.043  -3.413  -4.197  0.00  0.00     0.001 C 
ATOM     18  H   LIG d   1       5.107  -3.969  -3.262  0.00  0.00     0.033 H 
ATOM     19  H   LIG d   1       6.003  -2.942  -4.407  0.00  0.00     0.033 H 
BRANCH  17  20
ATOM     20  C   LIG d   1       4.690  -4.357  -5.318  0.00  0.00     0.084 A 
ATOM     21  C   LIG d   1       5.002  -4.175  -6.678  0.00  0.00     0.005 A 
ATOM     22  C   LIG d   1       4.521  -5.231  -7.362  0.00  0.00     0.151 A 
ATOM     23  H   LIG d   1       5.535  -3.337  -7.100  0.00  0.00     0.067 H 
ATOM     24  O   LIG d   1       3.920  -6.053  -6.488  0.00  0.00    -0.358 OA
ATOM     25  N   LIG d   1       4.045  -5.482  -5.198  0.00  0.00    -0.083 NA
BRANCH  22  26
ATOM     26  C   LIG d   1       4.629  -5.448  -8.849  0.00  0.00     0.060 C 
ATOM     27  H   LIG d   1       3.930  -6.227  -9.155  0.00  0.00     0.051 H 
ATOM     28  H   LIG d   1       5.645  -5.753  -9.099  0.00  0.00     0.051 H 
BRANCH  26  29
ATOM     29  N   LIG d   1       4.305  -4.198  -9.550  0.00  0.00    -0.292 N 
ATOM     30  C   LIG d   1       3.040  -3.632  -9.062  0.00  0.00     0.015 C 
ATOM     31  C   LIG d   1       2.648  -2.437  -9.937  0.00  0.00     0.025 C 
ATOM     32  H   LIG d   1       3.163  -3.303  -8.030  0.00  0.00     0.044 H 
ATOM     33  H   LIG d   1       2.260  -4.391  -9.112  0.00  0.00     0.044 H 
ATOM     34  N   LIG d   1       3.777  -1.495  -9.974  0.00  0.00    -0.328 N 
ATOM     35  H   LIG d   1       1.774  -1.943  -9.512  0.00  0.00     0.048 H 
ATOM     36  H   LIG d   1       2.425  -2.780 -10.946  0.00  0.00     0.048 H 
ATOM     37  C   LIG d   1       5.107  -2.016 -10.328  0.00  0.00     0.025 C 
ATOM     38  C   LIG d   1       5.404  -3.229  -9.432  0.00  0.00     0.015 C 
ATOM     39  H   LIG d   1       5.114  -2.319 -11.375  0.00  0.00     0.048 H 
ATOM     40  H   LIG d   1       5.859  -1.244 -10.162  0.00  0.00     0.048 H 
ATOM     41  H   LIG d   1       5.493  -2.905  -8.395  0.00  0.00     0.044 H 
ATOM     42  H   LIG d   1       6.336  -3.695  -9.750  0.00  0.00     0.044 H 
BRANCH  34  43
ATOM     43  C   LIG d   1       3.591  -0.141  -9.686  0.00  0.00     0.030 A 
ATOM     44  C   LIG d   1       2.974   0.241  -8.501  0.00  0.00    -0.041 A 
ATOM     45  C   LIG d   1       2.793   1.580  -8.219  0.00  0.00    -0.060 A 
ATOM     46  H   LIG d   1       2.636  -0.509  -7.802  0.00  0.00     0.064 H 
ATOM     47  C   LIG d   1       3.225   2.542  -9.115  0.00  0.00    -0.062 A 
ATOM     48  H   LIG d   1       2.314   1.878  -7.299  0.00  0.00     0.062 H 
ATOM     49  C   LIG d   1       3.841   2.165 -10.295  0.00  0.00    -0.060 A 
ATOM     50  H   LIG d   1       3.078   3.589  -8.894  0.00  0.00     0.062 H 
ATOM     51  C   LIG d   1       4.025   0.828 -10.583  0.00  0.00    -0.041 A 
ATOM     52  H   LIG d   1       4.177   2.919 -10.991  0.00  0.00     0.062 H 
ATOM     53  H   LIG d   1       4.506   0.534 -11.504  0.00  0.00     0.064 H 
ENDBRANCH  34  43
ENDBRANCH  26  29
ENDBRANCH  22  26
ENDBRANCH  17  20
ENDBRANCH   1  17
BRANCH   7  54
ATOM     54  C   LIG d   1       5.692  -0.618  -4.624  0.00  0.00     0.028 C 
ATOM     55  H   LIG d   1       5.583   0.299  -4.045  0.00  0.00     0.036 H 
ATOM     56  H   LIG d   1       6.227  -1.360  -4.032  0.00  0.00     0.036 H 
BRANCH  54  57
ATOM     57  C   LIG d   1       6.467  -0.327  -5.883  0.00  0.00     0.216 C 
ATOM     58  O   LIG d   1       6.009  -0.637  -6.962  0.00  0.00    -0.276 OA
ATOM     59  N   LIG d   1       7.669   0.278  -5.810  0.00  0.00    -0.297 N 
ATOM     60  C   LIG d   1       8.249   0.667  -4.521  0.00  0.00     0.040 C 
ATOM     61  C   LIG d   1       8.448   0.583  -7.021  0.00  0.00     0.019 C 
ATOM     62  C   LIG d   1       8.825   2.054  -4.615  0.00  0.00    -0.027 A 
ATOM     63  H   LIG d   1       7.476   0.648  -3.754  0.00  0.00     0.051 H 
ATOM     64  H   LIG d   1       9.042  -0.033  -4.254  0.00  0.00     0.051 H 
ATOM     65  C   LIG d   1       8.982   2.706  -5.818  0.00  0.00    -0.041 A 
ATOM     66  C   LIG d   1       9.214   2.676  -3.437  0.00  0.00    -0.057 A 
ATOM     67  C   LIG d   1       8.568   2.101  -7.134  0.00  0.00    -0.011 C 
ATOM     68  C   LIG d   1       9.543   3.976  -5.839  0.00  0.00    -0.058 A 
ATOM     69  H   LIG d   1       9.314   2.348  -7.891  0.00  0.00     0.033 H 
ATOM     70  H   LIG d   1       7.606   2.517  -7.433  0.00  0.00     0.033 H 
ATOM     71  C   LIG d   1       9.934   4.591  -4.669  0.00  0.00    -0.061 A 
ATOM     72  H   LIG d   1       9.674   4.488  -6.782  0.00  0.00     0.062 H 
ATOM     73  C   LIG d   1       9.767   3.940  -3.461  0.00  0.00    -0.061 A 
ATOM     74  H   LIG d   1      10.371   5.579  -4.695  0.00  0.00     0.062 H 
ATOM     75  H   LIG d   1      10.068   4.418  -2.540  0.00  0.00     0.062 H 
ATOM     76  H   LIG d   1       9.084   2.166  -2.493  0.00  0.00     0.062 H 
ATOM     77  H   LIG d   1       9.441   0.139  -6.943  0.00  0.00     0.047 H 
ATOM     78  H   LIG d   1       7.935   0.188  -7.899  0.00  0.00     0.047 H 
ENDBRANCH  54  57
ENDBRANCH   7  54
TORSDOF 7
ENDMDL
MODEL 3
REMARK VINA RESULT:      -7.8      1.648      8.173
REMARK  7 active torsions:
REMARK  status: ('A' for Active; 'I' for Inactive)
REMARK    1  A    between atoms: C_4  and  N_7 
REMARK    2  A    between atoms: N_10  and  C_13 
REMARK    3  A    between atoms: C_13  and  C_14 
REMARK    4  A    between atoms: C_16  and  C_19 
REMARK    5  A    between atoms: C_19  and  C_20 
REMARK    6  A    between atoms: C_26  and  C_28 
REMARK    7  A    between atoms: C_28  and  C_29 
REMARK       I    between atoms: C_29  and  N_31 
ROOT
ATOM      1  C   LIG d   1       9.238   2.206  -6.172  0.00  0.00     0.008 C 
ATOM      2  H   LIG d   1       8.300   1.674  -6.010  0.00  0.00     0.036 H 
ATOM      3  C   LIG d   1      10.406   1.335  -5.708  0.00  0.00    -0.030 C 
ATOM      4  N   LIG d   1      10.259   1.032  -4.278  0.00  0.00     0.227 N 
ATOM      5  C   LIG d   1      10.324   2.274  -3.497  0.00  0.00    -0.033 C 
ATOM      6  C   LIG d   1       9.150   3.181  -3.876  0.00  0.00    -0.009 C 
ATOM      7  C   LIG d   1       9.230   3.510  -5.370  0.00  0.00    -0.020 C 
ATOM      8  H   LIG d   1       8.365   4.110  -5.657  0.00  0.00     0.031 H 
ATOM      9  H   LIG d   1      10.415   0.405  -6.276  0.00  0.00     0.082 H 
ATOM     10  H   LIG d   1      11.344   1.868  -5.870  0.00  0.00     0.082 H 
ATOM     11  H   LIG d   1       9.369   0.582  -4.122  0.00  0.00     0.201 HD
ATOM     12  H   LIG d   1      10.270   2.036  -2.435  0.00  0.00     0.081 H 
ATOM     13  H   LIG d   1      11.262   2.786  -3.707  0.00  0.00     0.081 H 
ATOM     14  H   LIG d   1       8.212   2.668  -3.667  0.00  0.00     0.032 H 
ATOM     15  H   LIG d   1       9.201   4.102  -3.296  0.00  0.00     0.032 H 
ATOM     16  H   LIG d   1      11.002   0.414  -3.989  0.00  0.00     0.201 HD
ENDROOT
BRANCH   1  17
ATOM     17  C   LIG d   1       9.395   2.522  -7.661  0.00  0.00     0.001 C 
ATOM     18  H   LIG d   1      10.242   1.966  -8.061  0.00  0.00     0.033 H 
ATOM     19  H   LIG d   1       9.568   3.591  -7.789  0.00  0.00     0.033 H 
BRANCH  17  20
ATOM     20  C   LIG d   1       8.140   2.124  -8.393  0.00  0.00     0.084 A 
ATOM     21  C   LIG d   1       7.617   0.821  -8.484  0.00  0.00     0.005 A 
ATOM     22  C   LIG d   1       6.489   0.874  -9.219  0.00  0.00     0.151 A 
ATOM     23  H   LIG d   1       8.043  -0.066  -8.041  0.00  0.00     0.067 H 
ATOM     24  O   LIG d   1       6.296   2.148  -9.593  0.00  0.00    -0.358 OA
ATOM     25  N   LIG d   1       7.351   2.923  -9.053  0.00  0.00    -0.083 NA
BRANCH  22  26
ATOM     26  C   LIG d   1       5.604  -0.294  -9.570  0.00  0.00     0.060 C 
ATOM     27  H   LIG d   1       6.217  -1.118  -9.937  0.00  0.00     0.051 H 
ATOM     28  H   LIG d   1       4.896   0.004 -10.343  0.00  0.00     0.051 H 
BRANCH  26  29
ATOM     29  N   LIG d   1       4.869  -0.727  -8.373  0.00  0.00    -0.292 N 
ATOM     30  C   LIG d   1       5.732  -1.513  -7.481  0.00  0.00     0.015 C 
ATOM     31  C   LIG d   1       4.888  -2.096  -6.343  0.00  0.00     0.025 C 
ATOM     32  H   LIG d   1       6.508  -0.869  -7.066  0.00  0.00     0.044 H 
ATOM     33  H   LIG d   1       6.194  -2.324  -8.043  0.00  0.00     0.044 H 
ATOM     34  N   LIG d   1       4.157  -0.997  -5.693  0.00  0.00    -0.328 N 
ATOM     35  H   LIG d   1       5.539  -2.582  -5.616  0.00  0.00     0.048 H 
ATOM     36  H   LIG d   1       4.179  -2.819  -6.746  0.00  0.00     0.048 H 
ATOM     37  C   LIG d   1       3.373  -0.085  -6.541  0.00  0.00     0.025 C 
ATOM     38  C   LIG d   1       4.281   0.422  -7.672  0.00  0.00     0.015 C 
ATOM     39  H   LIG d   1       2.521  -0.620  -6.962  0.00  0.00     0.048 H 
ATOM     40  H   LIG d   1       3.022   0.758  -5.945  0.00  0.00     0.048 H 
ATOM     41  H   LIG d   1       5.078   1.039  -7.254  0.00  0.00     0.044 H 
ATOM     42  H   LIG d   1       3.692   1.013  -8.372  0.00  0.00     0.044 H 
BRANCH  34  43
ATOM     43  C   LIG d   1       4.202  -0.827  -4.307  0.00  0.00     0.030 A 
ATOM     44  C   LIG d   1       4.248  -1.935  -3.470  0.00  0.00    -0.041 A 
ATOM     45  C   LIG d   1       4.293  -1.762  -2.101  0.00  0.00    -0.060 A 
ATOM     46  H   LIG d   1       4.247  -2.929  -3.890  0.00  0.00     0.064 H 
ATOM     47  C   LIG d   1       4.293  -0.488  -1.562  0.00  0.00    -0.062 A 
ATOM     48  H   LIG d   1       4.328  -2.623  -1.450  0.00  0.00     0.062 H 
ATOM     49  C   LIG d   1       4.248   0.617  -2.393  0.00  0.00    -0.060 A 
ATOM     50  H   LIG d   1       4.324  -0.356  -0.491  0.00  0.00     0.062 H 
ATOM     51  C   LIG d   1       4.203   0.451  -3.763  0.00  0.00    -0.041 A 
ATOM     52  H   LIG d   1       4.249   1.610  -1.968  0.00  0.00     0.062 H 
ATOM     53  H   LIG d   1       4.168   1.314  -4.411  0.00  0.00     0.064 H 
ENDBRANCH  34  43
ENDBRANCH  26  29
ENDBRANCH  22  26
ENDBRANCH  17  20
ENDBRANCH   1  17
BRANCH   7  54
ATOM     54  C   LIG d   1      10.513   4.293  -5.653  0.00  0.00     0.028 C 
ATOM     55  H   LIG d   1      11.307   3.938  -4.997  0.00  0.00     0.036 H 
ATOM     56  H   LIG d   1      10.807   4.146  -6.692  0.00  0.00     0.036 H 
BRANCH  54  57
ATOM     57  C   LIG d   1      10.272   5.759  -5.402  0.00  0.00     0.216 C 
ATOM     58  O   LIG d   1       9.543   6.390  -6.137  0.00  0.00    -0.276 OA
ATOM     59  N   LIG d   1      10.868   6.371  -4.359  0.00  0.00    -0.297 N 
ATOM     60  C   LIG d   1      11.755   5.637  -3.450  0.00  0.00     0.040 C 
ATOM     61  C   LIG d   1      10.649   7.800  -4.081  0.00  0.00     0.019 C 
ATOM     62  C   LIG d   1      11.444   6.002  -2.024  0.00  0.00    -0.027 A 
ATOM     63  H   LIG d   1      11.612   4.566  -3.589  0.00  0.00     0.051 H 
ATOM     64  H   LIG d   1      12.792   5.895  -3.668  0.00  0.00     0.051 H 
ATOM     65  C   LIG d   1      10.620   7.056  -1.697  0.00  0.00    -0.041 A 
ATOM     66  C   LIG d   1      12.025   5.242  -1.019  0.00  0.00    -0.057 A 
ATOM     67  C   LIG d   1       9.942   7.914  -2.732  0.00  0.00    -0.011 C 
ATOM     68  C   LIG d   1      10.392   7.356  -0.360  0.00  0.00    -0.058 A 
ATOM     69  H   LIG d   1       9.961   8.954  -2.403  0.00  0.00     0.033 H 
ATOM     70  H   LIG d   1       8.906   7.593  -2.841  0.00  0.00     0.033 H 
ATOM     71  C   LIG d   1      10.974   6.604   0.638  0.00  0.00    -0.061 A 
ATOM     72  H   LIG d   1       9.752   8.187  -0.099  0.00  0.00     0.062 H 
ATOM     73  C   LIG d   1      11.793   5.540   0.309  0.00  0.00    -0.061 A 
ATOM     74  H   LIG d   1      10.792   6.845   1.675  0.00  0.00     0.062 H 
ATOM     75  H   LIG d   1      12.248   4.945   1.086  0.00  0.00     0.062 H 
ATOM     76  H   LIG d   1      12.665   4.411  -1.277  0.00  0.00     0.062 H 
ATOM     77  H   LIG d   1      11.607   8.320  -4.041  0.00  0.00     0.047 H 
ATOM     78  H   LIG d   1      10.025   8.236  -4.862  0.00  0.00     0.047 H 
ENDBRANCH  54  57
ENDBRANCH   7  54
TORSDOF 7
ENDMDL
MODEL 4
REMARK VINA RESULT:      -7.8      2.494      5.052
REMARK  7 active torsions:
REMARK  status: ('A' for Active; 'I' for Inactive)
REMARK    1  A    between atoms: C_4  and  N_7 
REMARK    2  A    between atoms: N_10  and  C_13 
REMARK    3  A    between atoms: C_13  and  C_14 
REMARK    4  A    between atoms: C_16  and  C_19 
REMARK    5  A    between atoms: C_19  and  C_20 
REMARK    6  A    between atoms: C_26  and  C_28 
REMARK    7  A    between atoms: C_28  and  C_29 
REMARK       I    between atoms: C_29  and  N_31 
ROOT
ATOM      1  C   LIG d   1       6.413   0.290  -3.409  0.00  0.00     0.008 C 
ATOM      2  H   LIG d   1       7.191   0.283  -2.644  0.00  0.00     0.036 H 
ATOM      3  C   LIG d   1       5.319   1.285  -3.015  0.00  0.00    -0.030 C 
ATOM      4  N   LIG d   1       4.733   0.889  -1.729  0.00  0.00     0.227 N 
ATOM      5  C   LIG d   1       4.083  -0.421  -1.859  0.00  0.00    -0.033 C 
ATOM      6  C   LIG d   1       5.130  -1.481  -2.208  0.00  0.00    -0.009 C 
ATOM      7  C   LIG d   1       5.804  -1.109  -3.532  0.00  0.00    -0.020 C 
ATOM      8  H   LIG d   1       6.590  -1.830  -3.756  0.00  0.00     0.031 H 
ATOM      9  H   LIG d   1       5.749   2.282  -2.927  0.00  0.00     0.082 H 
ATOM     10  H   LIG d   1       4.542   1.292  -3.781  0.00  0.00     0.082 H 
ATOM     11  H   LIG d   1       5.460   0.836  -1.031  0.00  0.00     0.201 HD
ATOM     12  H   LIG d   1       3.602  -0.682  -0.917  0.00  0.00     0.081 H 
ATOM     13  H   LIG d   1       3.333  -0.377  -2.649  0.00  0.00     0.081 H 
ATOM     14  H   LIG d   1       5.880  -1.525  -1.418  0.00  0.00     0.032 H 
ATOM     15  H   LIG d   1       4.646  -2.452  -2.306  0.00  0.00     0.032 H 
ATOM     16  H   LIG d   1       4.049   1.577  -1.447  0.00  0.00     0.201 HD
ENDROOT
BRANCH   1  17
ATOM     17  C   LIG d   1       7.021   0.704  -4.751  0.00  0.00     0.001 C 
ATOM     18  H   LIG d   1       6.328   1.360  -5.276  0.00  0.00     0.033 H 
ATOM     19  H   LIG d   1       7.208  -0.185  -5.354  0.00  0.00     0.033 H 
BRANCH  17  20
ATOM     20  C   LIG d   1       8.318   1.432  -4.511  0.00  0.00     0.084 A 
ATOM     21  C   LIG d   1       8.506   2.825  -4.575  0.00  0.00     0.005 A 
ATOM     22  C   LIG d   1       9.799   3.086  -4.299  0.00  0.00     0.151 A 
ATOM     23  H   LIG d   1       7.747   3.557  -4.804  0.00  0.00     0.067 H 
ATOM     24  O   LIG d   1      10.419   1.917  -4.075  0.00  0.00    -0.358 OA
ATOM     25  N   LIG d   1       9.460   0.884  -4.208  0.00  0.00    -0.083 NA
BRANCH  22  26
ATOM     26  C   LIG d   1      10.438   4.449  -4.259  0.00  0.00     0.060 C 
ATOM     27  H   LIG d   1      10.071   5.048  -5.093  0.00  0.00     0.051 H 
ATOM     28  H   LIG d   1      11.520   4.346  -4.335  0.00  0.00     0.051 H 
BRANCH  26  29
ATOM     29  N   LIG d   1      10.097   5.113  -2.993  0.00  0.00    -0.292 N 
ATOM     30  C   LIG d   1      11.232   5.082  -2.060  0.00  0.00     0.015 C 
ATOM     31  C   LIG d   1      10.781   5.617  -0.697  0.00  0.00     0.025 C 
ATOM     32  H   LIG d   1      12.038   5.705  -2.447  0.00  0.00     0.044 H 
ATOM     33  H   LIG d   1      11.583   4.057  -1.950  0.00  0.00     0.044 H 
ATOM     34  N   LIG d   1      10.172   6.942  -0.892  0.00  0.00    -0.328 N 
ATOM     35  H   LIG d   1      11.643   5.705  -0.035  0.00  0.00     0.048 H 
ATOM     36  H   LIG d   1      10.048   4.939  -0.261  0.00  0.00     0.048 H 
ATOM     37  C   LIG d   1       9.117   7.079  -1.908  0.00  0.00     0.025 C 
ATOM     38  C   LIG d   1       9.636   6.488  -3.228  0.00  0.00     0.015 C 
ATOM     39  H   LIG d   1       8.227   6.538  -1.585  0.00  0.00     0.048 H 
ATOM     40  H   LIG d   1       8.877   8.134  -2.046  0.00  0.00     0.048 H 
ATOM     41  H   LIG d   1      10.465   7.091  -3.598  0.00  0.00     0.044 H 
ATOM     42  H   LIG d   1       8.832   6.482  -3.963  0.00  0.00     0.044 H 
BRANCH  34  43
ATOM     43  C   LIG d   1      10.583   8.039  -0.132  0.00  0.00     0.030 A 
ATOM     44  C   LIG d   1      10.157   9.318  -0.468  0.00  0.00    -0.041 A 
ATOM     45  C   LIG d   1      10.564  10.400   0.287  0.00  0.00    -0.060 A 
ATOM     46  H   LIG d   1       9.510   9.466  -1.319  0.00  0.00     0.064 H 
ATOM     47  C   LIG d   1      11.395  10.212   1.378  0.00  0.00    -0.062 A 
ATOM     48  H   LIG d   1      10.234  11.394   0.026  0.00  0.00     0.062 H 
ATOM     49  C   LIG d   1      11.819   8.940   1.715  0.00  0.00    -0.060 A 
ATOM     50  H   LIG d   1      11.715  11.061   1.964  0.00  0.00     0.062 H 
ATOM     51  C   LIG d   1      11.416   7.854   0.965  0.00  0.00    -0.041 A 
ATOM     52  H   LIG d   1      12.467   8.797   2.568  0.00  0.00     0.062 H 
ATOM     53  H   LIG d   1      11.748   6.860   1.229  0.00  0.00     0.064 H 
ENDBRANCH  34  43
ENDBRANCH  26  29
ENDBRANCH  22  26
ENDBRANCH  17  20
ENDBRANCH   1  17
BRANCH   7  54
ATOM     54  C   LIG d   1       4.765  -1.117  -4.654  0.00  0.00     0.028 C 
ATOM     55  H   LIG d   1       3.767  -1.212  -4.226  0.00  0.00     0.036 H 
ATOM     56  H   LIG d   1       4.831  -0.188  -5.219  0.00  0.00     0.036 H 
BRANCH  54  57
ATOM     57  C   LIG d   1       5.028  -2.282  -5.573  0.00  0.00     0.216 C 
ATOM     58  O   LIG d   1       5.404  -3.341  -5.119  0.00  0.00    -0.276 OA
ATOM     59  N   LIG d   1       4.846  -2.146  -6.902  0.00  0.00    -0.297 N 
ATOM     60  C   LIG d   1       4.392  -0.879  -7.484  0.00  0.00     0.040 C 
ATOM     61  C   LIG d   1       5.088  -3.266  -7.827  0.00  0.00     0.019 C 
ATOM     62  C   LIG d   1       3.325  -1.140  -8.512  0.00  0.00    -0.027 A 
ATOM     63  H   LIG d   1       3.988  -0.243  -6.698  0.00  0.00     0.051 H 
ATOM     64  H   LIG d   1       5.235  -0.376  -7.960  0.00  0.00     0.051 H 
ATOM     65  C   LIG d   1       3.044  -2.406  -8.976  0.00  0.00    -0.041 A 
ATOM     66  C   LIG d   1       2.619  -0.051  -9.005  0.00  0.00    -0.057 A 
ATOM     67  C   LIG d   1       3.756  -3.636  -8.477  0.00  0.00    -0.011 C 
ATOM     68  C   LIG d   1       2.063  -2.577  -9.945  0.00  0.00    -0.058 A 
ATOM     69  H   LIG d   1       3.940  -4.308  -9.316  0.00  0.00     0.033 H 
ATOM     70  H   LIG d   1       3.128  -4.142  -7.745  0.00  0.00     0.033 H 
ATOM     71  C   LIG d   1       1.366  -1.495 -10.437  0.00  0.00    -0.061 A 
ATOM     72  H   LIG d   1       1.844  -3.568 -10.315  0.00  0.00     0.062 H 
ATOM     73  C   LIG d   1       1.642  -0.225  -9.964  0.00  0.00    -0.061 A 
ATOM     74  H   LIG d   1       0.605  -1.637 -11.191  0.00  0.00     0.062 H 
ATOM     75  H   LIG d   1       1.097   0.626 -10.343  0.00  0.00     0.062 H 
ATOM     76  H   LIG d   1       2.836   0.940  -8.635  0.00  0.00     0.062 H 
ATOM     77  H   LIG d   1       5.802  -2.964  -8.594  0.00  0.00     0.047 H 
ATOM     78  H   LIG d   1       5.479  -4.122  -7.275  0.00  0.00     0.047 H 
ENDBRANCH  54  57
ENDBRANCH   7  54
TORSDOF 7
ENDMDL
MODEL 5
REMARK VINA RESULT:      -7.5      2.597      5.306
REMARK  7 active torsions:
REMARK  status: ('A' for Active; 'I' for Inactive)
REMARK    1  A    between atoms: C_4  and  N_7 
REMARK    2  A    between atoms: N_10  and  C_13 
REMARK    3  A    between atoms: C_13  and  C_14 
REMARK    4  A    between atoms: C_16  and  C_19 
REMARK    5  A    between atoms: C_19  and  C_20 
REMARK    6  A    between atoms: C_26  and  C_28 
REMARK    7  A    between atoms: C_28  and  C_29 
REMARK       I    between atoms: C_29  and  N_31 
ROOT
ATOM      1  C   LIG d   1       6.263  -0.003  -3.420  0.00  0.00     0.008 C 
ATOM      2  H   LIG d   1       7.004  -0.038  -2.620  0.00  0.00     0.036 H 
ATOM      3  C   LIG d   1       5.239   1.093  -3.119  0.00  0.00    -0.030 C 
ATOM      4  N   LIG d   1       4.567   0.804  -1.847  0.00  0.00     0.227 N 
ATOM      5  C   LIG d   1       3.818  -0.454  -1.953  0.00  0.00    -0.033 C 
ATOM      6  C   LIG d   1       4.789  -1.610  -2.208  0.00  0.00    -0.009 C 
ATOM      7  C   LIG d   1       5.548  -1.353  -3.513  0.00  0.00    -0.020 C 
ATOM      8  H   LIG d   1       6.281  -2.144  -3.670  0.00  0.00     0.031 H 
ATOM      9  H   LIG d   1       5.745   2.056  -3.052  0.00  0.00     0.082 H 
ATOM     10  H   LIG d   1       4.499   1.128  -3.920  0.00  0.00     0.082 H 
ATOM     11  H   LIG d   1       5.256   0.724  -1.114  0.00  0.00     0.201 HD
ATOM     12  H   LIG d   1       3.277  -0.633  -1.024  0.00  0.00     0.081 H 
ATOM     13  H   LIG d   1       3.109  -0.386  -2.778  0.00  0.00     0.081 H 
ATOM     14  H   LIG d   1       5.497  -1.678  -1.383  0.00  0.00     0.032 H 
ATOM     15  H   LIG d   1       4.231  -2.542  -2.289  0.00  0.00     0.032 H 
ATOM     16  H   LIG d   1       3.930   1.556  -1.626  0.00  0.00     0.201 HD
ENDROOT
BRANCH   1  17
ATOM     17  C   LIG d   1       6.961   0.300  -4.748  0.00  0.00     0.001 C 
ATOM     18  H   LIG d   1       6.371   1.023  -5.311  0.00  0.00     0.033 H 
ATOM     19  H   LIG d   1       7.057  -0.620  -5.326  0.00  0.00     0.033 H 
BRANCH  17  20
ATOM     20  C   LIG d   1       8.329   0.869  -4.478  0.00  0.00     0.084 A 
ATOM     21  C   LIG d   1       8.625   1.921  -3.592  0.00  0.00     0.005 A 
ATOM     22  C   LIG d   1       9.954   2.138  -3.627  0.00  0.00     0.151 A 
ATOM     23  H   LIG d   1       7.911   2.460  -2.987  0.00  0.00     0.067 H 
ATOM     24  O   LIG d   1      10.492   1.272  -4.500  0.00  0.00    -0.358 OA
ATOM     25  N   LIG d   1       9.445   0.475  -5.022  0.00  0.00    -0.083 NA
BRANCH  22  26
ATOM     26  C   LIG d   1      10.704   3.176  -2.834  0.00  0.00     0.060 C 
ATOM     27  H   LIG d   1      11.731   3.238  -3.195  0.00  0.00     0.051 H 
ATOM     28  H   LIG d   1      10.706   2.898  -1.781  0.00  0.00     0.051 H 
BRANCH  26  29
ATOM     29  N   LIG d   1      10.050   4.482  -2.995  0.00  0.00    -0.292 N 
ATOM     30  C   LIG d   1      10.450   5.407  -1.926  0.00  0.00     0.015 C 
ATOM     31  C   LIG d   1       9.614   6.687  -2.024  0.00  0.00     0.025 C 
ATOM     32  H   LIG d   1      11.507   5.653  -2.034  0.00  0.00     0.044 H 
ATOM     33  H   LIG d   1      10.283   4.936  -0.958  0.00  0.00     0.044 H 
ATOM     34  N   LIG d   1       9.737   7.223  -3.388  0.00  0.00    -0.328 N 
ATOM     35  H   LIG d   1       9.983   7.422  -1.308  0.00  0.00     0.048 H 
ATOM     36  H   LIG d   1       8.569   6.459  -1.814  0.00  0.00     0.048 H 
ATOM     37  C   LIG d   1       9.480   6.316  -4.518  0.00  0.00     0.025 C 
ATOM     38  C   LIG d   1      10.327   5.049  -4.322  0.00  0.00     0.015 C 
ATOM     39  H   LIG d   1       8.422   6.054  -4.542  0.00  0.00     0.048 H 
ATOM     40  H   LIG d   1       9.760   6.805  -5.451  0.00  0.00     0.048 H 
ATOM     41  H   LIG d   1      11.385   5.300  -4.397  0.00  0.00     0.044 H 
ATOM     42  H   LIG d   1      10.071   4.320  -5.090  0.00  0.00     0.044 H 
BRANCH  34  43
ATOM     43  C   LIG d   1      10.085   8.558  -3.606  0.00  0.00     0.030 A 
ATOM     44  C   LIG d   1      10.416   9.375  -2.531  0.00  0.00    -0.041 A 
ATOM     45  C   LIG d   1      10.760  10.695  -2.751  0.00  0.00    -0.060 A 
ATOM     46  H   LIG d   1      10.402   8.980  -1.527  0.00  0.00     0.064 H 
ATOM     47  C   LIG d   1      10.777  11.203  -4.037  0.00  0.00    -0.062 A 
ATOM     48  H   LIG d   1      11.017  11.330  -1.916  0.00  0.00     0.062 H 
ATOM     49  C   LIG d   1      10.450  10.391  -5.108  0.00  0.00    -0.060 A 
ATOM     50  H   LIG d   1      11.043  12.236  -4.205  0.00  0.00     0.062 H 
ATOM     51  C   LIG d   1      10.104   9.072  -4.896  0.00  0.00    -0.041 A 
ATOM     52  H   LIG d   1      10.465  10.791  -6.111  0.00  0.00     0.062 H 
ATOM     53  H   LIG d   1       9.849   8.438  -5.733  0.00  0.00     0.064 H 
ENDBRANCH  34  43
ENDBRANCH  26  29
ENDBRANCH  22  26
ENDBRANCH  17  20
ENDBRANCH   1  17
BRANCH   7  54
ATOM     54  C   LIG d   1       4.561  -1.329  -4.682  0.00  0.00     0.028 C 
ATOM     55  H   LIG d   1       3.543  -1.408  -4.300  0.00  0.00     0.036 H 
ATOM     56  H   LIG d   1       4.671  -0.395  -5.232  0.00  0.00     0.036 H 
BRANCH  54  57
ATOM     57  C   LIG d   1       4.843  -2.489  -5.601  0.00  0.00     0.216 C 
ATOM     58  O   LIG d   1       5.199  -3.554  -5.144  0.00  0.00    -0.276 OA
ATOM     59  N   LIG d   1       4.700  -2.343  -6.934  0.00  0.00    -0.297 N 
ATOM     60  C   LIG d   1       4.271  -1.069  -7.520  0.00  0.00     0.040 C 
ATOM     61  C   LIG d   1       4.962  -3.458  -7.859  0.00  0.00     0.019 C 
ATOM     62  C   LIG d   1       3.232  -1.315  -8.580  0.00  0.00    -0.027 A 
ATOM     63  H   LIG d   1       3.849  -0.435  -6.740  0.00  0.00     0.051 H 
ATOM     64  H   LIG d   1       5.130  -0.568  -7.968  0.00  0.00     0.051 H 
ATOM     65  C   LIG d   1       2.956  -2.576  -9.060  0.00  0.00    -0.041 A 
ATOM     66  C   LIG d   1       2.547  -0.219  -9.084  0.00  0.00    -0.057 A 
ATOM     67  C   LIG d   1       3.647  -3.814  -8.549  0.00  0.00    -0.011 C 
ATOM     68  C   LIG d   1       2.002  -2.735 -10.057  0.00  0.00    -0.058 A 
ATOM     69  H   LIG d   1       3.850  -4.482  -9.387  0.00  0.00     0.033 H 
ATOM     70  H   LIG d   1       2.994  -4.322  -7.839  0.00  0.00     0.033 H 
ATOM     71  C   LIG d   1       1.326  -1.644 -10.562  0.00  0.00    -0.061 A 
ATOM     72  H   LIG d   1       1.787  -3.722 -10.441  0.00  0.00     0.062 H 
ATOM     73  C   LIG d   1       1.597  -0.380 -10.072  0.00  0.00    -0.061 A 
ATOM     74  H   LIG d   1       0.586  -1.777 -11.338  0.00  0.00     0.062 H 
ATOM     75  H   LIG d   1       1.068   0.477 -10.460  0.00  0.00     0.062 H 
ATOM     76  H   LIG d   1       2.760   0.768  -8.702  0.00  0.00     0.062 H 
ATOM     77  H   LIG d   1       5.699  -3.155  -8.603  0.00  0.00     0.047 H 
ATOM     78  H   LIG d   1       5.331  -4.320  -7.302  0.00  0.00     0.047 H 
ENDBRANCH  54  57
ENDBRANCH   7  54
TORSDOF 7
ENDMDL
MODEL 6
REMARK VINA RESULT:      -7.5      7.565     10.994
REMARK  7 active torsions:
REMARK  status: ('A' for Active; 'I' for Inactive)
REMARK    1  A    between atoms: C_4  and  N_7 
REMARK    2  A    between atoms: N_10  and  C_13 
REMARK    3  A    between atoms: C_13  and  C_14 
REMARK    4  A    between atoms: C_16  and  C_19 
REMARK    5  A    between atoms: C_19  and  C_20 
REMARK    6  A    between atoms: C_26  and  C_28 
REMARK    7  A    between atoms: C_28  and  C_29 
REMARK       I    between atoms: C_29  and  N_31 
ROOT
ATOM      1  C   LIG d   1       6.258  -9.965  -3.795  0.00  0.00     0.008 C 
ATOM      2  H   LIG d   1       5.340  -9.388  -3.674  0.00  0.00     0.036 H 
ATOM      3  C   LIG d   1       6.001 -11.421  -3.405  0.00  0.00    -0.030 C 
ATOM      4  N   LIG d   1       5.567 -11.488  -2.004  0.00  0.00     0.227 N 
ATOM      5  C   LIG d   1       6.638 -11.000  -1.127  0.00  0.00    -0.033 C 
ATOM      6  C   LIG d   1       6.918  -9.526  -1.429  0.00  0.00    -0.009 C 
ATOM      7  C   LIG d   1       7.349  -9.384  -2.892  0.00  0.00    -0.020 C 
ATOM      8  H   LIG d   1       7.495  -8.329  -3.128  0.00  0.00     0.031 H 
ATOM      9  H   LIG d   1       5.225 -11.838  -4.046  0.00  0.00     0.082 H 
ATOM     10  H   LIG d   1       6.920 -11.997  -3.528  0.00  0.00     0.082 H 
ATOM     11  H   LIG d   1       4.745 -10.916  -1.881  0.00  0.00     0.201 HD
ATOM     12  H   LIG d   1       6.330 -11.105  -0.087  0.00  0.00     0.081 H 
ATOM     13  H   LIG d   1       7.542 -11.584  -1.298  0.00  0.00     0.081 H 
ATOM     14  H   LIG d   1       6.014  -8.942  -1.259  0.00  0.00     0.032 H 
ATOM     15  H   LIG d   1       7.715  -9.166  -0.778  0.00  0.00     0.032 H 
ATOM     16  H   LIG d   1       5.348 -12.444  -1.767  0.00  0.00     0.201 HD
ENDROOT
BRANCH   1  17
ATOM     17  C   LIG d   1       6.713  -9.898  -5.255  0.00  0.00     0.001 C 
ATOM     18  H   LIG d   1       6.245 -10.706  -5.817  0.00  0.00     0.033 H 
ATOM     19  H   LIG d   1       7.797 -10.002  -5.303  0.00  0.00     0.033 H 
BRANCH  17  20
ATOM     20  C   LIG d   1       6.307  -8.574  -5.847  0.00  0.00     0.084 A 
ATOM     21  C   LIG d   1       7.016  -7.365  -5.729  0.00  0.00     0.005 A 
ATOM     22  C   LIG d   1       6.334  -6.413  -6.395  0.00  0.00     0.151 A 
ATOM     23  H   LIG d   1       7.946  -7.225  -5.198  0.00  0.00     0.067 H 
ATOM     24  O   LIG d   1       5.233  -6.976  -6.913  0.00  0.00    -0.358 OA
ATOM     25  N   LIG d   1       5.239  -8.348  -6.558  0.00  0.00    -0.083 NA
BRANCH  22  26
ATOM     26  C   LIG d   1       6.733  -4.965  -6.527  0.00  0.00     0.060 C 
ATOM     27  H   LIG d   1       6.200  -4.516  -7.364  0.00  0.00     0.051 H 
ATOM     28  H   LIG d   1       7.807  -4.899  -6.702  0.00  0.00     0.051 H 
BRANCH  26  29
ATOM     29  N   LIG d   1       6.393  -4.250  -5.289  0.00  0.00    -0.292 N 
ATOM     30  C   LIG d   1       7.228  -3.052  -5.128  0.00  0.00     0.015 C 
ATOM     31  C   LIG d   1       6.972  -2.437  -3.747  0.00  0.00     0.025 C 
ATOM     32  H   LIG d   1       6.977  -2.326  -5.901  0.00  0.00     0.044 H 
ATOM     33  H   LIG d   1       8.279  -3.327  -5.214  0.00  0.00     0.044 H 
ATOM     34  N   LIG d   1       5.526  -2.213  -3.597  0.00  0.00    -0.328 N 
ATOM     35  H   LIG d   1       7.500  -1.487  -3.666  0.00  0.00     0.048 H 
ATOM     36  H   LIG d   1       7.319  -3.120  -2.973  0.00  0.00     0.048 H 
ATOM     37  C   LIG d   1       4.615  -3.335  -3.872  0.00  0.00     0.025 C 
ATOM     38  C   LIG d   1       4.964  -3.913  -5.253  0.00  0.00     0.015 C 
ATOM     39  H   LIG d   1       4.741  -4.103  -3.108  0.00  0.00     0.048 H 
ATOM     40  H   LIG d   1       3.585  -2.979  -3.871  0.00  0.00     0.048 H 
ATOM     41  H   LIG d   1       4.744  -3.174  -6.024  0.00  0.00     0.044 H 
ATOM     42  H   LIG d   1       4.374  -4.811  -5.429  0.00  0.00     0.044 H 
BRANCH  34  43
ATOM     43  C   LIG d   1       5.031  -0.969  -3.199  0.00  0.00     0.030 A 
ATOM     44  C   LIG d   1       5.892   0.115  -3.071  0.00  0.00    -0.041 A 
ATOM     45  C   LIG d   1       5.399   1.344  -2.679  0.00  0.00    -0.060 A 
ATOM     46  H   LIG d   1       6.945  -0.004  -3.277  0.00  0.00     0.064 H 
ATOM     47  C   LIG d   1       4.050   1.497  -2.414  0.00  0.00    -0.062 A 
ATOM     48  H   LIG d   1       6.067   2.186  -2.579  0.00  0.00     0.062 H 
ATOM     49  C   LIG d   1       3.191   0.420  -2.542  0.00  0.00    -0.060 A 
ATOM     50  H   LIG d   1       3.667   2.458  -2.104  0.00  0.00     0.062 H 
ATOM     51  C   LIG d   1       3.677  -0.811  -2.933  0.00  0.00    -0.041 A 
ATOM     52  H   LIG d   1       2.138   0.544  -2.335  0.00  0.00     0.062 H 
ATOM     53  H   LIG d   1       3.006  -1.651  -3.033  0.00  0.00     0.064 H 
ENDBRANCH  34  43
ENDBRANCH  26  29
ENDBRANCH  22  26
ENDBRANCH  17  20
ENDBRANCH   1  17
BRANCH   7  54
ATOM     54  C   LIG d   1       8.657 -10.145  -3.116  0.00  0.00     0.028 C 
ATOM     55  H   LIG d   1       8.706 -10.992  -2.432  0.00  0.00     0.036 H 
ATOM     56  H   LIG d   1       8.698 -10.505  -4.144  0.00  0.00     0.036 H 
BRANCH  54  57
ATOM     57  C   LIG d   1       9.823  -9.225  -2.860  0.00  0.00     0.216 C 
ATOM     58  O   LIG d   1       9.969  -8.228  -3.533  0.00  0.00    -0.276 OA
ATOM     59  N   LIG d   1      10.705  -9.512  -1.881  0.00  0.00    -0.297 N 
ATOM     60  C   LIG d   1      10.557 -10.709  -1.048  0.00  0.00     0.040 C 
ATOM     61  C   LIG d   1      11.851  -8.631  -1.601  0.00  0.00     0.019 C 
ATOM     62  C   LIG d   1      10.796 -10.363   0.396  0.00  0.00    -0.027 A 
ATOM     63  H   LIG d   1       9.550 -11.109  -1.162  0.00  0.00     0.051 H 
ATOM     64  H   LIG d   1      11.282 -11.461  -1.362  0.00  0.00     0.051 H 
ATOM     65  C   LIG d   1      11.320  -9.150   0.785  0.00  0.00    -0.041 A 
ATOM     66  C   LIG d   1      10.479 -11.317   1.353  0.00  0.00    -0.057 A 
ATOM     67  C   LIG d   1      11.673  -8.061  -0.195  0.00  0.00    -0.011 C 
ATOM     68  C   LIG d   1      11.540  -8.900   2.134  0.00  0.00    -0.058 A 
ATOM     69  H   LIG d   1      12.602  -7.584   0.120  0.00  0.00     0.033 H 
ATOM     70  H   LIG d   1      10.876  -7.318  -0.206  0.00  0.00     0.033 H 
ATOM     71  C   LIG d   1      11.231  -9.851   3.083  0.00  0.00    -0.061 A 
ATOM     72  H   LIG d   1      11.958  -7.953   2.442  0.00  0.00     0.062 H 
ATOM     73  C   LIG d   1      10.695 -11.065   2.693  0.00  0.00    -0.061 A 
ATOM     74  H   LIG d   1      11.405  -9.649   4.130  0.00  0.00     0.062 H 
ATOM     75  H   LIG d   1      10.446 -11.811   3.432  0.00  0.00     0.062 H 
ATOM     76  H   LIG d   1      10.062 -12.265   1.047  0.00  0.00     0.062 H 
ATOM     77  H   LIG d   1      12.778  -9.203  -1.652  0.00  0.00     0.047 H 
ATOM     78  H   LIG d   1      11.877  -7.818  -2.327  0.00  0.00     0.047 H 
ENDBRANCH  54  57
ENDBRANCH   7  54
TORSDOF 7
ENDMDL
MODEL 7
REMARK VINA RESULT:      -7.5      3.071      9.455
REMARK  7 active torsions:
REMARK  status: ('A' for Active; 'I' for Inactive)
REMARK    1  A    between atoms: C_4  and  N_7 
REMARK    2  A    between atoms: N_10  and  C_13 
REMARK    3  A    between atoms: C_13  and  C_14 
REMARK    4  A    between atoms: C_16  and  C_19 
REMARK    5  A    between atoms: C_19  and  C_20 
REMARK    6  A    between atoms: C_26  and  C_28 
REMARK    7  A    between atoms: C_28  and  C_29 
REMARK       I    between atoms: C_29  and  N_31 
ROOT
ATOM      1  C   LIG d   1      10.606   7.754  -5.840  0.00  0.00     0.008 C 
ATOM      2  H   LIG d   1      11.473   7.783  -6.501  0.00  0.00     0.036 H 
ATOM      3  C   LIG d   1       9.959   9.139  -5.786  0.00  0.00    -0.030 C 
ATOM      4  N   LIG d   1      10.928  10.117  -5.274  0.00  0.00     0.227 N 
ATOM      5  C   LIG d   1      11.302   9.773  -3.897  0.00  0.00    -0.033 C 
ATOM      6  C   LIG d   1      12.003   8.413  -3.880  0.00  0.00    -0.009 C 
ATOM      7  C   LIG d   1      11.050   7.348  -4.432  0.00  0.00    -0.020 C 
ATOM      8  H   LIG d   1      11.564   6.387  -4.475  0.00  0.00     0.031 H 
ATOM      9  H   LIG d   1       9.641   9.432  -6.786  0.00  0.00     0.082 H 
ATOM     10  H   LIG d   1       9.091   9.109  -5.125  0.00  0.00     0.082 H 
ATOM     11  H   LIG d   1      11.750  10.110  -5.859  0.00  0.00     0.201 HD
ATOM     12  H   LIG d   1      11.977  10.534  -3.505  0.00  0.00     0.081 H 
ATOM     13  H   LIG d   1      10.407   9.730  -3.278  0.00  0.00     0.081 H 
ATOM     14  H   LIG d   1      12.898   8.456  -4.499  0.00  0.00     0.032 H 
ATOM     15  H   LIG d   1      12.278   8.159  -2.856  0.00  0.00     0.032 H 
ATOM     16  H   LIG d   1      10.514  11.038  -5.290  0.00  0.00     0.201 HD
ENDROOT
BRANCH   1  17
ATOM     17  C   LIG d   1       9.594   6.737  -6.371  0.00  0.00     0.001 C 
ATOM     18  H   LIG d   1       9.335   6.987  -7.400  0.00  0.00     0.033 H 
ATOM     19  H   LIG d   1       8.696   6.761  -5.753  0.00  0.00     0.033 H 
BRANCH  17  20
ATOM     20  C   LIG d   1      10.198   5.357  -6.326  0.00  0.00     0.084 A 
ATOM     21  C   LIG d   1       9.664   4.244  -5.652  0.00  0.00     0.005 A 
ATOM     22  C   LIG d   1      10.491   3.199  -5.850  0.00  0.00     0.151 A 
ATOM     23  H   LIG d   1       8.751   4.229  -5.077  0.00  0.00     0.067 H 
ATOM     24  O   LIG d   1      11.514   3.617  -6.610  0.00  0.00    -0.358 OA
ATOM     25  N   LIG d   1      11.305   4.986  -6.905  0.00  0.00    -0.083 NA
BRANCH  22  26
ATOM     26  C   LIG d   1      10.304   1.806  -5.306  0.00  0.00     0.060 C 
ATOM     27  H   LIG d   1      10.769   1.734  -4.323  0.00  0.00     0.051 H 
ATOM     28  H   LIG d   1      10.768   1.087  -5.980  0.00  0.00     0.051 H 
BRANCH  26  29
ATOM     29  N   LIG d   1       8.868   1.514  -5.191  0.00  0.00    -0.292 N 
ATOM     30  C   LIG d   1       8.564   0.164  -5.684  0.00  0.00     0.015 C 
ATOM     31  C   LIG d   1       7.045  -0.033  -5.717  0.00  0.00     0.025 C 
ATOM     32  H   LIG d   1       9.013  -0.575  -5.020  0.00  0.00     0.044 H 
ATOM     33  H   LIG d   1       8.968   0.045  -6.689  0.00  0.00     0.044 H 
ATOM     34  N   LIG d   1       6.504   0.279  -4.385  0.00  0.00    -0.328 N 
ATOM     35  H   LIG d   1       6.815  -1.068  -5.971  0.00  0.00     0.048 H 
ATOM     36  H   LIG d   1       6.604   0.635  -6.456  0.00  0.00     0.048 H 
ATOM     37  C   LIG d   1       6.874   1.562  -3.767  0.00  0.00     0.025 C 
ATOM     38  C   LIG d   1       8.404   1.695  -3.809  0.00  0.00     0.015 C 
ATOM     39  H   LIG d   1       6.417   2.381  -4.324  0.00  0.00     0.048 H 
ATOM     40  H   LIG d   1       6.531   1.583  -2.732  0.00  0.00     0.048 H 
ATOM     41  H   LIG d   1       8.855   0.934  -3.171  0.00  0.00     0.044 H 
ATOM     42  H   LIG d   1       8.692   2.684  -3.454  0.00  0.00     0.044 H 
BRANCH  34  43
ATOM     43  C   LIG d   1       5.659  -0.616  -3.726  0.00  0.00     0.030 A 
ATOM     44  C   LIG d   1       5.155  -0.303  -2.469  0.00  0.00    -0.041 A 
ATOM     45  C   LIG d   1       4.318  -1.190  -1.822  0.00  0.00    -0.060 A 
ATOM     46  H   LIG d   1       5.418   0.633  -2.000  0.00  0.00     0.064 H 
ATOM     47  C   LIG d   1       3.982  -2.390  -2.422  0.00  0.00    -0.062 A 
ATOM     48  H   LIG d   1       3.927  -0.947  -0.845  0.00  0.00     0.062 H 
ATOM     49  C   LIG d   1       4.481  -2.704  -3.673  0.00  0.00    -0.060 A 
ATOM     50  H   LIG d   1       3.331  -3.085  -1.911  0.00  0.00     0.062 H 
ATOM     51  C   LIG d   1       5.317  -1.822  -4.326  0.00  0.00    -0.041 A 
ATOM     52  H   LIG d   1       4.215  -3.642  -4.139  0.00  0.00     0.062 H 
ATOM     53  H   LIG d   1       5.707  -2.067  -5.304  0.00  0.00     0.064 H 
ENDBRANCH  34  43
ENDBRANCH  26  29
ENDBRANCH  22  26
ENDBRANCH  17  20
ENDBRANCH   1  17
BRANCH   7  54
ATOM     54  C   LIG d   1       9.826   7.235  -3.522  0.00  0.00     0.028 C 
ATOM     55  H   LIG d   1       9.465   8.233  -3.273  0.00  0.00     0.036 H 
ATOM     56  H   LIG d   1       9.040   6.682  -4.036  0.00  0.00     0.036 H 
BRANCH  54  57
ATOM     57  C   LIG d   1      10.206   6.509  -2.258  0.00  0.00     0.216 C 
ATOM     58  O   LIG d   1      10.634   5.376  -2.313  0.00  0.00    -0.276 OA
ATOM     59  N   LIG d   1      10.070   7.120  -1.064  0.00  0.00    -0.297 N 
ATOM     60  C   LIG d   1       9.557   8.489  -0.961  0.00  0.00     0.040 C 
ATOM     61  C   LIG d   1      10.438   6.441   0.190  0.00  0.00     0.019 C 
ATOM     62  C   LIG d   1      10.394   9.280   0.006  0.00  0.00    -0.027 A 
ATOM     63  H   LIG d   1       9.591   8.964  -1.941  0.00  0.00     0.051 H 
ATOM     64  H   LIG d   1       8.525   8.464  -0.607  0.00  0.00     0.051 H 
ATOM     65  C   LIG d   1      11.324   8.687   0.830  0.00  0.00    -0.041 A 
ATOM     66  C   LIG d   1      10.198  10.653   0.062  0.00  0.00    -0.057 A 
ATOM     67  C   LIG d   1      11.603   7.207   0.815  0.00  0.00    -0.011 C 
ATOM     68  C   LIG d   1      12.049   9.471   1.720  0.00  0.00    -0.058 A 
ATOM     69  H   LIG d   1      11.753   6.860   1.838  0.00  0.00     0.033 H 
ATOM     70  H   LIG d   1      12.508   7.018   0.238  0.00  0.00     0.033 H 
ATOM     71  C   LIG d   1      11.850  10.833   1.778  0.00  0.00    -0.061 A 
ATOM     72  H   LIG d   1      12.775   9.008   2.373  0.00  0.00     0.062 H 
ATOM     73  C   LIG d   1      10.922  11.430   0.943  0.00  0.00    -0.061 A 
ATOM     74  H   LIG d   1      12.417  11.435   2.473  0.00  0.00     0.062 H 
ATOM     75  H   LIG d   1      10.765  12.497   0.981  0.00  0.00     0.062 H 
ATOM     76  H   LIG d   1       9.473  11.118  -0.590  0.00  0.00     0.062 H 
ATOM     77  H   LIG d   1       9.588   6.440   0.873  0.00  0.00     0.047 H 
ATOM     78  H   LIG d   1      10.743   5.415  -0.022  0.00  0.00     0.047 H 
ENDBRANCH  54  57
ENDBRANCH   7  54
TORSDOF 7
ENDMDL
MODEL 8
REMARK VINA RESULT:      -7.5      1.745      2.511
REMARK  7 active torsions:
REMARK  status: ('A' for Active; 'I' for Inactive)
REMARK    1  A    between atoms: C_4  and  N_7 
REMARK    2  A    between atoms: N_10  and  C_13 
REMARK    3  A    between atoms: C_13  and  C_14 
REMARK    4  A    between atoms: C_16  and  C_19 
REMARK    5  A    between atoms: C_19  and  C_20 
REMARK    6  A    between atoms: C_26  and  C_28 
REMARK    7  A    between atoms: C_28  and  C_29 
REMARK       I    between atoms: C_29  and  N_31 
ROOT
ATOM      1  C   LIG d   1       6.196  -0.510 -10.022  0.00  0.00     0.008 C 
ATOM      2  H   LIG d   1       6.602   0.172 -10.770  0.00  0.00     0.036 H 
ATOM      3  C   LIG d   1       6.367  -1.953 -10.501  0.00  0.00    -0.030 C 
ATOM      4  N   LIG d   1       5.652  -2.140 -11.770  0.00  0.00     0.227 N 
ATOM      5  C   LIG d   1       4.213  -1.932 -11.566  0.00  0.00    -0.033 C 
ATOM      6  C   LIG d   1       3.960  -0.487 -11.129  0.00  0.00    -0.009 C 
ATOM      7  C   LIG d   1       4.707  -0.218  -9.820  0.00  0.00    -0.020 C 
ATOM      8  H   LIG d   1       4.576   0.826  -9.534  0.00  0.00     0.031 H 
ATOM      9  H   LIG d   1       7.426  -2.165 -10.646  0.00  0.00     0.082 H 
ATOM     10  H   LIG d   1       5.960  -2.635  -9.752  0.00  0.00     0.082 H 
ATOM     11  H   LIG d   1       5.995  -1.476 -12.448  0.00  0.00     0.201 HD
ATOM     12  H   LIG d   1       3.684  -2.127 -12.499  0.00  0.00     0.081 H 
ATOM     13  H   LIG d   1       3.853  -2.613 -10.796  0.00  0.00     0.081 H 
ATOM     14  H   LIG d   1       4.319   0.194 -11.899  0.00  0.00     0.032 H 
ATOM     15  H   LIG d   1       2.891  -0.336 -10.977  0.00  0.00     0.032 H 
ATOM     16  H   LIG d   1       5.811  -3.077 -12.109  0.00  0.00     0.201 HD
ENDROOT
BRANCH   1  17
ATOM     17  C   LIG d   1       6.939  -0.319  -8.699  0.00  0.00     0.001 C 
ATOM     18  H   LIG d   1       7.716  -1.078  -8.606  0.00  0.00     0.033 H 
ATOM     19  H   LIG d   1       6.237  -0.414  -7.870  0.00  0.00     0.033 H 
BRANCH  17  20
ATOM     20  C   LIG d   1       7.569   1.049  -8.670  0.00  0.00     0.084 A 
ATOM     21  C   LIG d   1       8.641   1.447  -7.849  0.00  0.00     0.005 A 
ATOM     22  C   LIG d   1       8.915   2.739  -8.117  0.00  0.00     0.151 A 
ATOM     23  H   LIG d   1       9.154   0.826  -7.131  0.00  0.00     0.067 H 
ATOM     24  O   LIG d   1       8.058   3.159  -9.060  0.00  0.00    -0.358 OA
ATOM     25  N   LIG d   1       7.219   2.069  -9.400  0.00  0.00    -0.083 NA
BRANCH  22  26
ATOM     26  C   LIG d   1       9.990   3.569  -7.465  0.00  0.00     0.060 C 
ATOM     27  H   LIG d   1      10.195   4.446  -8.079  0.00  0.00     0.051 H 
ATOM     28  H   LIG d   1      10.898   2.976  -7.364  0.00  0.00     0.051 H 
BRANCH  26  29
ATOM     29  N   LIG d   1       9.536   4.000  -6.135  0.00  0.00    -0.292 N 
ATOM     30  C   LIG d   1      10.133   3.168  -5.081  0.00  0.00     0.015 C 
ATOM     31  C   LIG d   1       9.499   3.527  -3.732  0.00  0.00     0.025 C 
ATOM     32  H   LIG d   1      11.207   3.350  -5.038  0.00  0.00     0.044 H 
ATOM     33  H   LIG d   1       9.950   2.117  -5.300  0.00  0.00     0.044 H 
ATOM     34  N   LIG d   1       9.627   4.978  -3.527  0.00  0.00    -0.328 N 
ATOM     35  H   LIG d   1      10.016   2.997  -2.932  0.00  0.00     0.048 H 
ATOM     36  H   LIG d   1       8.445   3.250  -3.738  0.00  0.00     0.048 H 
ATOM     37  C   LIG d   1       9.171   5.875  -4.600  0.00  0.00     0.025 C 
ATOM     38  C   LIG d   1       9.822   5.424  -5.917  0.00  0.00     0.015 C 
ATOM     39  H   LIG d   1       8.085   5.819  -4.686  0.00  0.00     0.048 H 
ATOM     40  H   LIG d   1       9.470   6.899  -4.373  0.00  0.00     0.048 H 
ATOM     41  H   LIG d   1      10.901   5.574  -5.862  0.00  0.00     0.044 H 
ATOM     42  H   LIG d   1       9.414   6.007  -6.741  0.00  0.00     0.044 H 
BRANCH  34  43
ATOM     43  C   LIG d   1      10.163   5.490  -2.344  0.00  0.00     0.030 A 
ATOM     44  C   LIG d   1      11.140   4.779  -1.657  0.00  0.00    -0.041 A 
ATOM     45  C   LIG d   1      11.669   5.290  -0.488  0.00  0.00    -0.060 A 
ATOM     46  H   LIG d   1      11.484   3.829  -2.036  0.00  0.00     0.064 H 
ATOM     47  C   LIG d   1      11.228   6.507  -0.000  0.00  0.00    -0.062 A 
ATOM     48  H   LIG d   1      12.427   4.738   0.047  0.00  0.00     0.062 H 
ATOM     49  C   LIG d   1      10.257   7.217  -0.683  0.00  0.00    -0.060 A 
ATOM     50  H   LIG d   1      11.640   6.902   0.917  0.00  0.00     0.062 H 
ATOM     51  C   LIG d   1       9.724   6.713  -1.852  0.00  0.00    -0.041 A 
ATOM     52  H   LIG d   1       9.915   8.168  -0.299  0.00  0.00     0.062 H 
ATOM     53  H   LIG d   1       8.965   7.268  -2.385  0.00  0.00     0.064 H 
ENDBRANCH  34  43
ENDBRANCH  26  29
ENDBRANCH  22  26
ENDBRANCH  17  20
ENDBRANCH   1  17
BRANCH   7  54
ATOM     54  C   LIG d   1       4.152  -1.124  -8.719  0.00  0.00     0.028 C 
ATOM     55  H   LIG d   1       3.681  -1.997  -9.170  0.00  0.00     0.036 H 
ATOM     56  H   LIG d   1       4.965  -1.445  -8.068  0.00  0.00     0.036 H 
BRANCH  54  57
ATOM     57  C   LIG d   1       3.132  -0.366  -7.911  0.00  0.00     0.216 C 
ATOM     58  O   LIG d   1       2.052  -0.098  -8.393  0.00  0.00    -0.276 OA
ATOM     59  N   LIG d   1       3.420   0.016  -6.650  0.00  0.00    -0.297 N 
ATOM     60  C   LIG d   1       4.716  -0.292  -6.037  0.00  0.00     0.040 C 
ATOM     61  C   LIG d   1       2.443   0.753  -5.831  0.00  0.00     0.019 C 
ATOM     62  C   LIG d   1       4.514  -0.787  -4.631  0.00  0.00    -0.027 A 
ATOM     63  H   LIG d   1       5.220  -1.060  -6.622  0.00  0.00     0.051 H 
ATOM     64  H   LIG d   1       5.330   0.609  -6.016  0.00  0.00     0.051 H 
ATOM     65  C   LIG d   1       3.299  -0.699  -3.987  0.00  0.00    -0.041 A 
ATOM     66  C   LIG d   1       5.605  -1.339  -3.975  0.00  0.00    -0.057 A 
ATOM     67  C   LIG d   1       2.068  -0.128  -4.641  0.00  0.00    -0.011 C 
ATOM     68  C   LIG d   1       3.184  -1.153  -2.679  0.00  0.00    -0.058 A 
ATOM     69  H   LIG d   1       1.520   0.468  -3.911  0.00  0.00     0.033 H 
ATOM     70  H   LIG d   1       1.433  -0.944  -4.984  0.00  0.00     0.033 H 
ATOM     71  C   LIG d   1       4.270  -1.696  -2.026  0.00  0.00    -0.061 A 
ATOM     72  H   LIG d   1       2.234  -1.080  -2.169  0.00  0.00     0.062 H 
ATOM     73  C   LIG d   1       5.486  -1.793  -2.677  0.00  0.00    -0.061 A 
ATOM     74  H   LIG d   1       4.172  -2.046  -1.009  0.00  0.00     0.062 H 
ATOM     75  H   LIG d   1       6.339  -2.221  -2.172  0.00  0.00     0.062 H 
ATOM     76  H   LIG d   1       6.554  -1.414  -4.483  0.00  0.00     0.062 H 
ATOM     77  H   LIG d   1       2.886   1.684  -5.476  0.00  0.00     0.047 H 
ATOM     78  H   LIG d   1       1.553   0.969  -6.424  0.00  0.00     0.047 H 
ENDBRANCH  54  57
ENDBRANCH   7  54
TORSDOF 7
ENDMDL
MODEL 9
REMARK VINA RESULT:      -7.5      5.389     11.088
REMARK  7 active torsions:
REMARK  status: ('A' for Active; 'I' for Inactive)
REMARK    1  A    between atoms: C_4  and  N_7 
REMARK    2  A    between atoms: N_10  and  C_13 
REMARK    3  A    between atoms: C_13  and  C_14 
REMARK    4  A    between atoms: C_16  and  C_19 
REMARK    5  A    between atoms: C_19  and  C_20 
REMARK    6  A    between atoms: C_26  and  C_28 
REMARK    7  A    between atoms: C_28  and  C_29 
REMARK       I    between atoms: C_29  and  N_31 
ROOT
ATOM      1  C   LIG d   1       6.260  -1.434  -3.140  0.00  0.00     0.008 C 
ATOM      2  H   LIG d   1       6.693  -1.755  -2.192  0.00  0.00     0.036 H 
ATOM      3  C   LIG d   1       5.901   0.051  -3.060  0.00  0.00    -0.030 C 
ATOM      4  N   LIG d   1       4.925   0.265  -1.984  0.00  0.00     0.227 N 
ATOM      5  C   LIG d   1       3.682  -0.454  -2.288  0.00  0.00    -0.033 C 
ATOM      6  C   LIG d   1       3.957  -1.959  -2.337  0.00  0.00    -0.009 C 
ATOM      7  C   LIG d   1       4.995  -2.246  -3.426  0.00  0.00    -0.020 C 
ATOM      8  H   LIG d   1       5.237  -3.310  -3.427  0.00  0.00     0.031 H 
ATOM      9  H   LIG d   1       6.799   0.633  -2.857  0.00  0.00     0.082 H 
ATOM     10  H   LIG d   1       5.469   0.372  -4.009  0.00  0.00     0.082 H 
ATOM     11  H   LIG d   1       5.307  -0.076  -1.114  0.00  0.00     0.201 HD
ATOM     12  H   LIG d   1       2.944  -0.245  -1.513  0.00  0.00     0.081 H 
ATOM     13  H   LIG d   1       3.298  -0.122  -3.253  0.00  0.00     0.081 H 
ATOM     14  H   LIG d   1       4.341  -2.290  -1.373  0.00  0.00     0.032 H 
ATOM     15  H   LIG d   1       3.033  -2.490  -2.566  0.00  0.00     0.032 H 
ATOM     16  H   LIG d   1       4.731   1.252  -1.899  0.00  0.00     0.201 HD
ENDROOT
BRANCH   1  17
ATOM     17  C   LIG d   1       7.275  -1.655  -4.264  0.00  0.00     0.001 C 
ATOM     18  H   LIG d   1       8.058  -0.899  -4.198  0.00  0.00     0.033 H 
ATOM     19  H   LIG d   1       6.773  -1.575  -5.228  0.00  0.00     0.033 H 
BRANCH  17  20
ATOM     20  C   LIG d   1       7.887  -3.024  -4.127  0.00  0.00     0.084 A 
ATOM     21  C   LIG d   1       7.736  -4.090  -5.033  0.00  0.00     0.005 A 
ATOM     22  C   LIG d   1       8.433  -5.142  -4.562  0.00  0.00     0.151 A 
ATOM     23  H   LIG d   1       7.163  -4.068  -5.947  0.00  0.00     0.067 H 
ATOM     24  O   LIG d   1       9.002  -4.777  -3.402  0.00  0.00    -0.358 OA
ATOM     25  N   LIG d   1       8.647  -3.430  -3.150  0.00  0.00    -0.083 NA
BRANCH  22  26
ATOM     26  C   LIG d   1       8.547  -6.494  -5.216  0.00  0.00     0.060 C 
ATOM     27  H   LIG d   1       9.295  -7.090  -4.693  0.00  0.00     0.051 H 
ATOM     28  H   LIG d   1       8.845  -6.371  -6.257  0.00  0.00     0.051 H 
BRANCH  26  29
ATOM     29  N   LIG d   1       7.248  -7.178  -5.156  0.00  0.00    -0.292 N 
ATOM     30  C   LIG d   1       6.648  -7.288  -6.493  0.00  0.00     0.015 C 
ATOM     31  C   LIG d   1       5.224  -7.838  -6.366  0.00  0.00     0.025 C 
ATOM     32  H   LIG d   1       7.246  -7.963  -7.105  0.00  0.00     0.044 H 
ATOM     33  H   LIG d   1       6.618  -6.304  -6.959  0.00  0.00     0.044 H 
ATOM     34  N   LIG d   1       5.275  -9.094  -5.601  0.00  0.00    -0.328 N 
ATOM     35  H   LIG d   1       4.815  -8.031  -7.358  0.00  0.00     0.048 H 
ATOM     36  H   LIG d   1       4.598  -7.117  -5.842  0.00  0.00     0.048 H 
ATOM     37  C   LIG d   1       5.976  -9.094  -4.308  0.00  0.00     0.025 C 
ATOM     38  C   LIG d   1       7.376  -8.495  -4.519  0.00  0.00     0.015 C 
ATOM     39  H   LIG d   1       5.420  -8.490  -3.591  0.00  0.00     0.048 H 
ATOM     40  H   LIG d   1       6.065 -10.117  -3.939  0.00  0.00     0.048 H 
ATOM     41  H   LIG d   1       7.964  -9.154  -5.159  0.00  0.00     0.044 H 
ATOM     42  H   LIG d   1       7.872  -8.387  -3.555  0.00  0.00     0.044 H 
BRANCH  34  43
ATOM     43  C   LIG d   1       4.669 -10.255  -6.088  0.00  0.00     0.030 A 
ATOM     44  C   LIG d   1       4.644 -10.507  -7.454  0.00  0.00    -0.041 A 
ATOM     45  C   LIG d   1       4.046 -11.657  -7.932  0.00  0.00    -0.060 A 
ATOM     46  H   LIG d   1       5.092  -9.805  -8.141  0.00  0.00     0.064 H 
ATOM     47  C   LIG d   1       3.471 -12.556  -7.052  0.00  0.00    -0.062 A 
ATOM     48  H   LIG d   1       4.026 -11.853  -8.993  0.00  0.00     0.062 H 
ATOM     49  C   LIG d   1       3.495 -12.308  -5.691  0.00  0.00    -0.060 A 
ATOM     50  H   LIG d   1       3.000 -13.452  -7.428  0.00  0.00     0.062 H 
ATOM     51  C   LIG d   1       4.092 -11.161  -5.207  0.00  0.00    -0.041 A 
ATOM     52  H   LIG d   1       3.046 -13.013  -5.007  0.00  0.00     0.062 H 
ATOM     53  H   LIG d   1       4.111 -10.968  -4.144  0.00  0.00     0.064 H 
ENDBRANCH  34  43
ENDBRANCH  26  29
ENDBRANCH  22  26
ENDBRANCH  17  20
ENDBRANCH   1  17
BRANCH   7  54
ATOM     54  C   LIG d   1       4.429  -1.848  -4.790  0.00  0.00     0.028 C 
ATOM     55  H   LIG d   1       3.409  -1.485  -4.669  0.00  0.00     0.036 H 
ATOM     56  H   LIG d   1       5.045  -1.061  -5.225  0.00  0.00     0.036 H 
BRANCH  54  57
ATOM     57  C   LIG d   1       4.429  -3.047  -5.704  0.00  0.00     0.216 C 
ATOM     58  O   LIG d   1       4.399  -4.165  -5.237  0.00  0.00    -0.276 OA
ATOM     59  N   LIG d   1       4.463  -2.875  -7.040  0.00  0.00    -0.297 N 
ATOM     60  C   LIG d   1       4.498  -1.536  -7.637  0.00  0.00     0.040 C 
ATOM     61  C   LIG d   1       4.457  -4.025  -7.960  0.00  0.00     0.019 C 
ATOM     62  C   LIG d   1       3.538  -1.463  -8.792  0.00  0.00    -0.027 A 
ATOM     63  H   LIG d   1       4.219  -0.797  -6.887  0.00  0.00     0.051 H 
ATOM     64  H   LIG d   1       5.507  -1.325  -7.994  0.00  0.00     0.051 H 
ATOM     65  C   LIG d   1       2.938  -2.584  -9.322  0.00  0.00    -0.041 A 
ATOM     66  C   LIG d   1       3.271  -0.214  -9.335  0.00  0.00    -0.057 A 
ATOM     67  C   LIG d   1       3.167  -3.969  -8.775  0.00  0.00    -0.011 C 
ATOM     68  C   LIG d   1       2.078  -2.452 -10.405  0.00  0.00    -0.058 A 
ATOM     69  H   LIG d   1       3.235  -4.674  -9.605  0.00  0.00     0.033 H 
ATOM     70  H   LIG d   1       2.327  -4.247  -8.139  0.00  0.00     0.033 H 
ATOM     71  C   LIG d   1       1.817  -1.211 -10.947  0.00  0.00    -0.061 A 
ATOM     72  H   LIG d   1       1.610  -3.329 -10.828  0.00  0.00     0.062 H 
ATOM     73  C   LIG d   1       2.413  -0.086 -10.409  0.00  0.00    -0.061 A 
ATOM     74  H   LIG d   1       1.148  -1.118 -11.791  0.00  0.00     0.062 H 
ATOM     75  H   LIG d   1       2.209   0.889 -10.827  0.00  0.00     0.062 H 
ATOM     76  H   LIG d   1       3.737   0.664  -8.915  0.00  0.00     0.062 H 
ATOM     77  H   LIG d   1       5.318  -3.968  -8.628  0.00  0.00     0.047 H 
ATOM     78  H   LIG d   1       4.493  -4.954  -7.390  0.00  0.00     0.047 H 
ENDBRANCH  54  57
ENDBRANCH   7  54
TORSDOF 7
ENDMDL
